
##########                                Name:     oleObject79.pdb
##########                DOCK_Rotatable_Bonds:                  12
##########                         Heavy_Atoms:                  53
##########                    Molecular_Weight:             725.376
##########                DOCK_Rotatable_Bonds:                  12
##########                       Formal_Charge:          0.00050066
##########                     HBond_Acceptors:                   8
##########                        HBond_Donors:                   4
##########                         Heavy_Atoms:                  53
##########                          Grid_Score:          -39.116161
##########                     Grid_vdw_energy:          -39.139290
##########                      Grid_es_energy:            0.023130
##########           Internal_energy_repulsive:           29.247353

@<TRIPOS>MOLECULE
oleObject79.pdb
 102 108 1 0 0
SMALL
NO_CHARGES


@<TRIPOS>ATOM
      1 C          -9.3707    2.9218   59.6901 C.ar    1  UNL        -0.0620
      2 C          -9.1482    1.6661   60.2722 C.ar    1  UNL        -0.0590
      3 C         -10.2156    0.7737   60.4931 C.ar    1  UNL        -0.0456
      4 C         -11.5341    1.1472   60.1200 C.ar    1  UNL        -0.0185
      5 C         -11.7372    2.4159   59.5349 C.ar    1  UNL        -0.0565
      6 C         -10.6676    3.2970   59.3214 C.ar    1  UNL        -0.0619
      7 C         -12.7336    0.1925   60.2867 C.3     1  UNL         0.0931
      8 C         -13.4549    0.2816   61.6446 C.ar    1  UNL         0.0683
      9 C         -14.2911   -0.7672   62.1062 C.ar    1  UNL        -0.0272
     10 C         -14.9209   -0.6222   63.3568 C.ar    1  UNL        -0.0559
     11 C         -14.7014    0.5449   64.1021 C.ar    1  UNL        -0.0435
     12 C         -13.8574    1.5312   63.5716 C.ar    1  UNL         0.0272
     13 N         -13.2521    1.4021   62.3763 N.ar    1  UNL        -0.2587
     14 C         -14.5287   -2.0372   61.2956 C.3     1  UNL        -0.0379
     15 N         -13.6347    0.2431   59.1014 N.am    1  UNL        -0.2918
     16 C         -13.3422   -0.5045   57.9585 C.2     1  UNL         0.2179
     17 O         -12.2175   -0.9445   57.7865 O.2     1  UNL        -0.2772
     18 C         -14.3411   -0.3854   56.7760 C.3     1  UNL         0.0361
     19 C         -14.3694   -1.6487   55.8686 C.3     1  UNL        -0.0412
     20 C         -13.1191   -1.7948   54.9578 C.3     1  UNL        -0.0453
     21 C         -12.7731   -0.5209   54.1304 C.3     1  UNL        -0.0139
     22 C         -11.3436   -0.6881   53.5445 C.3     1  UNL         0.0171
     23 N         -10.9957    0.4440   52.6619 N.pl3   1  UNL        -0.3290
     24 C         -11.8817    0.5864   51.4900 C.3     1  UNL         0.0115
     25 C         -13.3549    0.7384   51.9366 C.3     1  UNL        -0.0368
     26 C         -13.7718   -0.3675   52.9386 C.3     1  UNL        -0.0446
     27 C          -9.7995    1.1534   52.8125 C.ar    1  UNL         0.0476
     28 C          -9.8541    2.5200   53.1494 C.ar    1  UNL        -0.0375
     29 C          -8.6810    3.2788   53.2817 C.ar    1  UNL        -0.0388
     30 C          -7.4248    2.6945   53.0582 C.ar    1  UNL         0.0318
     31 C          -7.3602    1.3259   52.7386 C.ar    1  UNL        -0.0202
     32 C          -8.5311    0.5597   52.6096 C.ar    1  UNL         0.0636
     33 CL         -8.3379   -1.1167   52.1262 Cl      1  UNL        -0.0822
     34 N          -6.2818    3.4790   53.1984 N.pl3   1  UNL        -0.3149
     35 C          -5.0700    3.4783   52.5096 C.ar    1  UNL         0.0302
     36 C          -3.8392    3.6947   53.1564 C.ar    1  UNL        -0.0402
     37 C          -2.6362    3.6601   52.4332 C.ar    1  UNL        -0.0525
     38 C          -2.6211    3.4006   51.0402 C.ar    1  UNL        -0.0182
     39 C          -3.8679    3.1666   50.4087 C.ar    1  UNL        -0.0525
     40 C          -5.0702    3.1965   51.1340 C.ar    1  UNL        -0.0402
     41 C          -1.3357    3.3638   50.2655 C.ar    1  UNL        -0.0177
     42 C          -1.2531    2.7142   49.0074 C.ar    1  UNL        -0.0439
     43 C          -0.0515    2.6678   48.2672 C.ar    1  UNL         0.0111
     44 C           1.0962    3.2876   48.8032 C.ar    1  UNL        -0.0518
     45 C           1.0400    3.9376   50.0445 C.ar    1  UNL        -0.0609
     46 C          -0.1614    3.9764   50.7667 C.ar    1  UNL        -0.0543
     47 C          -0.0007    2.0239   47.0267 C.2     1  UNL         0.1014
     48 N          -0.9138    1.2118   46.6384 N.3     1  UNL        -0.2892
     49 N           1.0229    2.2297   46.1868 N.3     1  UNL        -0.2870
     50 C         -12.7844    0.7253   55.0695 C.3     1  UNL        -0.0453
     51 C         -14.0793    0.8659   55.8980 C.3     1  UNL        -0.0412
     52 C         -14.8523    1.0786   59.1894 C.3     1  UNL         0.0037
     53 C          -9.8969   -0.5839   61.1102 C.3     1  UNL        -0.0394
     54 H          -8.5406    3.6008   59.5212 H       1  UNL         0.0623
     55 H          -8.1365    1.3827   60.5477 H       1  UNL         0.0626
     56 H         -12.7342    2.7253   59.2398 H       1  UNL         0.0627
     57 H         -10.8449    4.2678   58.8678 H       1  UNL         0.0623
     58 H         -12.3194   -0.8170   60.2934 H       1  UNL         0.0626
     59 H         -15.5696   -1.4016   63.7464 H       1  UNL         0.0627
     60 H         -15.1734    0.6823   65.0705 H       1  UNL         0.0639
     61 H         -13.6586    2.4520   64.1186 H       1  UNL         0.0840
     62 H         -14.9971   -1.8102   60.3303 H       1  UNL         0.0280
     63 H         -15.1918   -2.7347   61.8225 H       1  UNL         0.0280
     64 H         -13.5881   -2.5671   61.1013 H       1  UNL         0.0280
     65 H         -15.3392   -0.2877   57.2199 H       1  UNL         0.0401
     66 H         -15.2628   -1.6035   55.2329 H       1  UNL         0.0275
     67 H         -14.4819   -2.5486   56.4869 H       1  UNL         0.0275
     68 H         -13.2630   -2.6502   54.2851 H       1  UNL         0.0273
     69 H         -12.2555   -2.0587   55.5793 H       1  UNL         0.0273
     70 H         -11.2884   -1.6240   52.9732 H       1  UNL         0.0474
     71 H         -10.6239   -0.7618   54.3704 H       1  UNL         0.0474
     72 H         -11.7906   -0.3088   50.8617 H       1  UNL         0.0468
     73 H         -11.5888    1.4478   50.8772 H       1  UNL         0.0468
     74 H         -14.0095    0.7047   51.0568 H       1  UNL         0.0283
     75 H         -13.5013    1.7244   52.3931 H       1  UNL         0.0283
     76 H         -13.8186   -1.3171   52.3896 H       1  UNL         0.0273
     77 H         -14.7899   -0.1733   53.2952 H       1  UNL         0.0273
     78 H         -10.8137    2.9998   53.3186 H       1  UNL         0.0644
     79 H          -8.7511    4.3308   53.5437 H       1  UNL         0.0643
     80 H          -6.3979    0.8456   52.5914 H       1  UNL         0.0659
     81 H          -6.3502    4.1894   53.9158 H       1  UNL         0.1528
     82 H          -3.8038    3.8721   54.2256 H       1  UNL         0.0643
     83 H          -1.7086    3.8495   52.9640 H       1  UNL         0.0630
     84 H          -3.9076    2.9379   49.3485 H       1  UNL         0.0630
     85 H          -6.0085    3.0050   50.6211 H       1  UNL         0.0643
     86 H          -2.1421    2.2452   48.5973 H       1  UNL         0.0637
     87 H           2.0347    3.2805   48.2558 H       1  UNL         0.0630
     88 H           1.9301    4.4117   50.4484 H       1  UNL         0.0623
     89 H          -0.1722    4.4713   51.7329 H       1  UNL         0.0629
     90 H          -1.6383    1.7068   46.1140 H       1  UNL         0.1889
     91 H           0.8760    2.1620   45.1813 H       1  UNL         0.1258
     92 H           1.6555    3.0110   46.3499 H       1  UNL         0.1258
     93 H         -12.6217    1.6499   54.5045 H       1  UNL         0.0273
     94 H         -11.9384    0.6497   55.7622 H       1  UNL         0.0273
     95 H         -14.9313    1.0220   55.2256 H       1  UNL         0.0275
     96 H         -14.0210    1.7712   56.5111 H       1  UNL         0.0275
     97 H         -14.9186    1.7611   58.3348 H       1  UNL         0.0433
     98 H         -14.8586    1.6852   60.1021 H       1  UNL         0.0433
     99 H         -15.7368    0.4295   59.1945 H       1  UNL         0.0433
    100 H          -8.8404   -0.6644   61.3947 H       1  UNL         0.0280
    101 H         -10.1061   -1.3957   60.4022 H       1  UNL         0.0280
    102 H         -10.4914   -0.7561   62.0162 H       1  UNL         0.0280
@<TRIPOS>BOND
     1     1     2   ar
     2     1     6   ar
     3     1    54    1
     4     2     3   ar
     5     2    55    1
     6     3     4   ar
     7     3    53    1
     8     4     5   ar
     9     4     7    1
    10     5     6   ar
    11     5    56    1
    12     6    57    1
    13     7     8    1
    14     7    15    1
    15     7    58    1
    16     8     9   ar
    17     8    13   ar
    18     9    10   ar
    19     9    14    1
    20    10    11   ar
    21    10    59    1
    22    11    12   ar
    23    11    60    1
    24    12    13   ar
    25    12    61    1
    26    14    62    1
    27    14    63    1
    28    14    64    1
    29    15    16   am
    30    15    52    1
    31    16    17    2
    32    16    18    1
    33    18    19    1
    34    18    51    1
    35    18    65    1
    36    19    20    1
    37    19    66    1
    38    19    67    1
    39    20    21    1
    40    20    68    1
    41    20    69    1
    42    21    22    1
    43    21    26    1
    44    21    50    1
    45    22    23    1
    46    22    70    1
    47    22    71    1
    48    23    24    1
    49    23    27    1
    50    24    25    1
    51    24    72    1
    52    24    73    1
    53    25    26    1
    54    25    74    1
    55    25    75    1
    56    26    76    1
    57    26    77    1
    58    27    28   ar
    59    27    32   ar
    60    28    29   ar
    61    28    78    1
    62    29    30   ar
    63    29    79    1
    64    30    31   ar
    65    30    34    1
    66    31    32   ar
    67    31    80    1
    68    32    33    1
    69    34    35    1
    70    34    81    1
    71    35    36   ar
    72    35    40   ar
    73    36    37   ar
    74    36    82    1
    75    37    38   ar
    76    37    83    1
    77    38    39   ar
    78    38    41    1
    79    39    40   ar
    80    39    84    1
    81    40    85    1
    82    41    42   ar
    83    41    46   ar
    84    42    43   ar
    85    42    86    1
    86    43    44   ar
    87    43    47    1
    88    44    45   ar
    89    44    87    1
    90    45    46   ar
    91    45    88    1
    92    46    89    1
    93    47    48    1
    94    47    49    1
    95    48    90    1
    96    49    91    1
    97    49    92    1
    98    50    51    1
    99    50    93    1
   100    50    94    1
   101    51    95    1
   102    51    96    1
   103    52    97    1
   104    52    98    1
   105    52    99    1
   106    53   100    1
   107    53   101    1
   108    53   102    1
@<TRIPOS>SUBSTRUCTURE
     1 UNL         1 TEMP              0 ****  ****    0 ROOT


##########                                Name:     oleObject70.pdb
##########                DOCK_Rotatable_Bonds:                   9
##########                         Heavy_Atoms:                  35
##########                    Molecular_Weight:             504.458
##########                DOCK_Rotatable_Bonds:                   9
##########                       Formal_Charge:          0.00010002
##########                     HBond_Acceptors:                   6
##########                        HBond_Donors:                   2
##########                         Heavy_Atoms:                  35
##########                          Grid_Score:          -39.033077
##########                     Grid_vdw_energy:          -39.460804
##########                      Grid_es_energy:            0.427726
##########           Internal_energy_repulsive:           11.485520

@<TRIPOS>MOLECULE
oleObject70.pdb
 62 65 1 0 0
SMALL
NO_CHARGES


@<TRIPOS>ATOM
      1 C          -1.1572    3.5635   65.4118 C.ar    1  UNL        -0.0620
      2 C          -0.0730    4.1581   64.7507 C.ar    1  UNL        -0.0590
      3 C           0.4948    3.5547   63.6117 C.ar    1  UNL        -0.0456
      4 C          -0.0413    2.3370   63.1202 C.ar    1  UNL        -0.0187
      5 C          -1.1234    1.7437   63.8063 C.ar    1  UNL        -0.0565
      6 C          -1.6796    2.3521   64.9411 C.ar    1  UNL        -0.0619
      7 C           0.5526    1.6485   61.8784 C.3     1  UNL         0.0909
      8 C           0.7146    0.1256   62.0257 C.ar    1  UNL         0.0681
      9 C           1.7356   -0.4428   62.8291 C.ar    1  UNL        -0.0272
     10 C           1.8215   -1.8456   62.9094 C.ar    1  UNL        -0.0559
     11 C           0.8990   -2.6291   62.2013 C.ar    1  UNL        -0.0435
     12 C          -0.0833   -1.9833   61.4365 C.ar    1  UNL         0.0272
     13 N          -0.1739   -0.6431   61.3536 N.ar    1  UNL        -0.2587
     14 C           2.7387    0.4102   63.5978 C.3     1  UNL        -0.0379
     15 N          -0.0897    2.0839   60.6186 N.am    1  UNL        -0.2987
     16 C           0.4115    1.9226   59.3328 C.2     1  UNL         0.2437
     17 O           1.4752    1.3722   59.1056 O.2     1  UNL        -0.2719
     18 C          -0.4448    2.4593   58.2107 C.ar    1  UNL         0.0371
     19 C           0.0626    2.6579   56.9069 C.ar    1  UNL        -0.0494
     20 C          -0.7628    3.1576   55.8860 C.ar    1  UNL        -0.0570
     21 C          -2.1078    3.4685   56.1457 C.ar    1  UNL        -0.0341
     22 C          -2.6210    3.2720   57.4384 C.ar    1  UNL        -0.0570
     23 C          -1.7969    2.7734   58.4603 C.ar    1  UNL        -0.0494
     24 C          -2.9996    4.0020   55.0372 C.3     1  UNL         0.0208
     25 N          -2.5881    3.4864   53.7254 N.4     1  UNL        -0.3086
     26 C          -3.4965    3.8558   52.6318 C.3     1  UNL         0.0223
     27 C          -2.9722    3.3767   51.2847 C.ar    1  UNL        -0.0154
     28 C          -1.6197    3.5893   50.9558 C.ar    1  UNL        -0.0548
     29 C          -1.1089    3.1536   49.7223 C.ar    1  UNL        -0.0431
     30 C          -1.9491    2.4993   48.8082 C.ar    1  UNL         0.0421
     31 C          -3.2982    2.2792   49.1272 C.ar    1  UNL        -0.0245
     32 C          -3.8107    2.7148   50.3611 C.ar    1  UNL         0.0465
     33 CL         -5.5009    2.4084   50.7174 Cl      1  UNL        -0.0839
     34 CL         -1.3135    1.9546   47.2705 Cl      1  UNL        -0.0843
     35 C           1.6907    4.2331   62.9507 C.3     1  UNL        -0.0394
     36 H          -1.5842    4.0354   66.2919 H       1  UNL         0.0623
     37 H           0.3315    5.0915   65.1319 H       1  UNL         0.0626
     38 H          -1.5354    0.7981   63.4700 H       1  UNL         0.0627
     39 H          -2.5113    1.8811   65.4570 H       1  UNL         0.0623
     40 H           1.5713    2.0367   61.7855 H       1  UNL         0.0624
     41 H           2.5917   -2.3223   63.5090 H       1  UNL         0.0627
     42 H           0.9435   -3.7133   62.2436 H       1  UNL         0.0639
     43 H          -0.8188   -2.5541   60.8713 H       1  UNL         0.0840
     44 H           3.3782    0.9811   62.9136 H       1  UNL         0.0280
     45 H           3.3981   -0.2067   64.2210 H       1  UNL         0.0280
     46 H           2.2318    1.1184   64.2644 H       1  UNL         0.0280
     47 H          -0.9809    2.5528   60.7022 H       1  UNL         0.1508
     48 H           1.0961    2.4297   56.6675 H       1  UNL         0.0631
     49 H          -0.3567    3.3001   54.8883 H       1  UNL         0.0626
     50 H          -3.6609    3.5029   57.6524 H       1  UNL         0.0626
     51 H          -2.2175    2.6295   59.4518 H       1  UNL         0.0631
     52 H          -2.9550    5.0989   55.0360 H       1  UNL         0.0479
     53 H          -4.0389    3.7126   55.2402 H       1  UNL         0.0479
     54 H          -2.5208    2.4699   53.7734 H       1  UNL         0.1229
     55 H          -3.6149    4.9468   52.6069 H       1  UNL         0.0480
     56 H          -4.4907    3.4259   52.8089 H       1  UNL         0.0480
     57 H          -0.9613    4.0909   51.6597 H       1  UNL         0.0627
     58 H          -0.0639    3.3217   49.4776 H       1  UNL         0.0639
     59 H          -3.9461    1.7697   48.4196 H       1  UNL         0.0654
     60 H           2.0602    5.0762   63.5479 H       1  UNL         0.0280
     61 H           1.4244    4.6244   61.9610 H       1  UNL         0.0280
     62 H           2.5269    3.5332   62.8285 H       1  UNL         0.0280
@<TRIPOS>BOND
     1     1     2   ar
     2     1     6   ar
     3     1    36    1
     4     2     3   ar
     5     2    37    1
     6     3     4   ar
     7     3    35    1
     8     4     5   ar
     9     4     7    1
    10     5     6   ar
    11     5    38    1
    12     6    39    1
    13     7     8    1
    14     7    15    1
    15     7    40    1
    16     8     9   ar
    17     8    13   ar
    18     9    10   ar
    19     9    14    1
    20    10    11   ar
    21    10    41    1
    22    11    12   ar
    23    11    42    1
    24    12    13   ar
    25    12    43    1
    26    14    44    1
    27    14    45    1
    28    14    46    1
    29    15    16   am
    30    15    47    1
    31    16    17    2
    32    16    18    1
    33    18    19   ar
    34    18    23   ar
    35    19    20   ar
    36    19    48    1
    37    20    21   ar
    38    20    49    1
    39    21    22   ar
    40    21    24    1
    41    22    23   ar
    42    22    50    1
    43    23    51    1
    44    24    25    1
    45    24    52    1
    46    24    53    1
    47    25    26    1
    48    25    54    1
    49    26    27    1
    50    26    55    1
    51    26    56    1
    52    27    28   ar
    53    27    32   ar
    54    28    29   ar
    55    28    57    1
    56    29    30   ar
    57    29    58    1
    58    30    31   ar
    59    30    34    1
    60    31    32   ar
    61    31    59    1
    62    32    33    1
    63    35    60    1
    64    35    61    1
    65    35    62    1
@<TRIPOS>SUBSTRUCTURE
     1 UNL         1 TEMP              0 ****  ****    0 ROOT


##########                                Name:    ZINC000824084043
##########                DOCK_Rotatable_Bonds:                  11
##########                         Heavy_Atoms:                  27
##########                    Molecular_Weight:             382.547
##########                DOCK_Rotatable_Bonds:                  11
##########                       Formal_Charge:        -6.85453e-07
##########                     HBond_Acceptors:                   7
##########                        HBond_Donors:                   3
##########                         Heavy_Atoms:                  27
##########                          Grid_Score:          -38.810555
##########                     Grid_vdw_energy:          -31.995211
##########                      Grid_es_energy:           -6.815345
##########           Internal_energy_repulsive:           18.745098

@<TRIPOS>MOLECULE
ZINC000824084043
 65 66 1 0 0
SMALL
USER_CHARGES


@<TRIPOS>ATOM
      1 C1         -7.1354    1.2870   52.1806 C.3     1  ZINC000824084043   -0.1400
      2 C2         -5.9217    1.8947   51.4745 C.3     1  ZINC000824084043   -0.1000
      3 C3         -6.1195    1.8132   49.9595 C.3     1  ZINC000824084043   -0.1300
      4 C4         -5.7696    3.3590   51.8910 C.3     1  ZINC000824084043    0.1700
      5 H5         -5.9452    3.4520   52.9627 H       1  ZINC000824084043    0.0700
      6 C6         -4.3543    3.8383   51.5624 C.3     1  ZINC000824084043   -0.1400
      7 C7         -3.3579    3.1792   52.5183 C.3     1  ZINC000824084043    0.1300
      8 N8         -2.1259    3.9709   52.5617 N.am    1  ZINC000824084043   -0.6200
      9 C9         -1.6511    4.6536   51.3556 C.3     1  ZINC000824084043    0.0800
     10 C10        -1.4296    4.0712   53.7112 C.2     1  ZINC000824084043    0.7000
     11 O11        -0.4064    4.7271   53.7470 O.2     1  ZINC000824084043   -0.5800
     12 N12        -1.8674    3.4445   54.8212 N.am    1  ZINC000824084043   -0.7500
     13 C13        -1.1115    3.5549   56.0712 C.3     1  ZINC000824084043    0.1600
     14 C14        -2.0828    3.6043   57.2542 C.3     1  ZINC000824084043   -0.1600
     15 C15        -1.2858    3.6393   58.5601 C.3     1  ZINC000824084043   -0.0100
     16 N16        -0.4508    2.4363   58.6605 N.4     1  ZINC000824084043   -0.3800
     17 H17        -1.0354    1.6163   58.5987 H       1  ZINC000824084043    0.4200
     18 C18         0.2539    2.4374   59.9494 C.3     1  ZINC000824084043    0.0000
     19 C19        -0.2460    1.2716   60.8050 C.3     1  ZINC000824084043   -0.1200
     20 C20         0.5827   -0.0052   60.5187 C.3     1  ZINC000824084043   -0.1400
     21 C21         0.3899   -0.8350   61.8122 C.3     1  ZINC000824084043   -0.1200
     22 C22         0.4051    0.2159   62.9416 C.3     1  ZINC000824084043   -0.1300
     23 C23         0.0008    1.5553   62.3011 C.3     1  ZINC000824084043   -0.1100
     24 C24         0.5308    2.4190   57.5694 C.3     1  ZINC000824084043    0.0000
     25 C25        -0.1961    2.3369   56.2254 C.3     1  ZINC000824084043   -0.1600
     26 N26        -6.7434    4.1772   51.1639 N.am    1  ZINC000824084043   -0.7800
     27 C27        -7.3019    5.2490   51.7602 C.2     1  ZINC000824084043    0.6600
     28 O28        -6.9969    5.5378   52.9089 O.co2   1  ZINC000824084043   -0.7200
     29 O29        -8.1138    5.9330   51.1526 O.co2   1  ZINC000824084043   -0.7300
     30 H30        -7.2437    0.2438   51.8839 H       1  ZINC000824084043    0.0500
     31 H31        -6.9946    1.3451   53.2599 H       1  ZINC000824084043    0.0500
     32 H32        -8.0325    1.8393   51.9011 H       1  ZINC000824084043    0.0500
     33 H33        -5.0245    1.3424   51.7540 H       1  ZINC000824084043    0.0500
     34 H34        -7.0166    2.3655   49.6800 H       1  ZINC000824084043    0.0600
     35 H35        -5.2547    2.2460   49.4564 H       1  ZINC000824084043    0.0700
     36 H36        -6.2278    0.7700   49.6628 H       1  ZINC000824084043    0.0300
     37 H37        -4.1076    3.5664   50.5361 H       1  ZINC000824084043    0.0700
     38 H38        -4.3025    4.9214   51.6738 H       1  ZINC000824084043    0.0600
     39 H39        -3.7919    3.1275   53.5167 H       1  ZINC000824084043    0.0900
     40 H40        -3.1305    2.1722   52.1682 H       1  ZINC000824084043    0.0900
     41 H41        -2.0777    5.6558   51.3136 H       1  ZINC000824084043    0.0600
     42 H42        -0.5636    4.7224   51.3813 H       1  ZINC000824084043    0.0600
     43 H43        -1.9588    4.0905   50.4744 H       1  ZINC000824084043    0.0800
     44 H44        -2.6832    2.9202   54.7923 H       1  ZINC000824084043    0.4000
     45 H45        -0.5096    4.4634   56.0541 H       1  ZINC000824084043    0.1100
     46 H46        -2.7006    4.4992   57.1807 H       1  ZINC000824084043    0.1200
     47 H47        -2.7191    2.7195   57.2398 H       1  ZINC000824084043    0.0900
     48 H48        -0.6500    4.5246   58.5736 H       1  ZINC000824084043    0.1300
     49 H49        -1.9743    3.6747   59.4045 H       1  ZINC000824084043    0.1300
     50 H50         1.3249    2.3293   59.7780 H       1  ZINC000824084043    0.1300
     51 H51         0.0620    3.3769   60.4677 H       1  ZINC000824084043    0.1300
     52 H52        -1.3050    1.0908   60.6205 H       1  ZINC000824084043    0.1000
     53 H53         0.1852   -0.5382   59.6550 H       1  ZINC000824084043    0.0700
     54 H54         1.6342    0.2416   60.3713 H       1  ZINC000824084043    0.0800
     55 H55        -0.5660   -1.3583   61.7909 H       1  ZINC000824084043    0.0700
     56 H56         1.2101   -1.5418   61.9379 H       1  ZINC000824084043    0.0800
     57 H57        -0.3106   -0.0586   63.7165 H       1  ZINC000824084043    0.0700
     58 H58         1.4057    0.2923   63.3670 H       1  ZINC000824084043    0.0700
     59 H59         0.8052    2.2818   62.4156 H       1  ZINC000824084043    0.0700
     60 H60        -0.9111    1.9308   62.7652 H       1  ZINC000824084043    0.0800
     61 H61         1.1280    3.3302   57.6040 H       1  ZINC000824084043    0.1300
     62 H62         1.1836    1.5534   57.6823 H       1  ZINC000824084043    0.1300
     63 H63        -0.7933    1.4259   56.1897 H       1  ZINC000824084043    0.0900
     64 H64         0.5345    2.3259   55.4165 H       1  ZINC000824084043    0.1200
     65 H65        -6.9863    3.9473   50.2533 H       1  ZINC000824084043    0.3600
@<TRIPOS>BOND
     1     1     2    1
     2     1    30    1
     3     1    31    1
     4     1    32    1
     5     2     3    1
     6     2     4    1
     7     2    33    1
     8     3    34    1
     9     3    35    1
    10     3    36    1
    11     4     5    1
    12     4     6    1
    13     4    26    1
    14     6     7    1
    15     6    37    1
    16     6    38    1
    17     7     8    1
    18     7    39    1
    19     7    40    1
    20     8     9    1
    21     8    10   am
    22     9    41    1
    23     9    42    1
    24     9    43    1
    25    10    11    2
    26    10    12   am
    27    12    13    1
    28    12    44    1
    29    13    25    1
    30    13    14    1
    31    13    45    1
    32    14    15    1
    33    14    46    1
    34    14    47    1
    35    15    16    1
    36    15    48    1
    37    15    49    1
    38    16    17    1
    39    16    18    1
    40    16    24    1
    41    18    19    1
    42    18    50    1
    43    18    51    1
    44    19    23    1
    45    19    20    1
    46    19    52    1
    47    20    21    1
    48    20    53    1
    49    20    54    1
    50    21    22    1
    51    21    55    1
    52    21    56    1
    53    22    23    1
    54    22    57    1
    55    22    58    1
    56    23    59    1
    57    23    60    1
    58    24    25    1
    59    24    61    1
    60    24    62    1
    61    25    63    1
    62    25    64    1
    63    26    27   am
    64    26    65    1
    65    27    28   ar
    66    27    29   ar
@<TRIPOS>SUBSTRUCTURE
     1 ZINC000824084043        1 TEMP              0 ****  ****    0 ROOT


##########                                Name:    ZINC001574157642
##########                DOCK_Rotatable_Bonds:                   9
##########                         Heavy_Atoms:                  28
##########                    Molecular_Weight:             387.445
##########                DOCK_Rotatable_Bonds:                   9
##########                       Formal_Charge:          -0.0400004
##########                     HBond_Acceptors:                  11
##########                        HBond_Donors:                   4
##########                         Heavy_Atoms:                  28
##########                          Grid_Score:          -38.480190
##########                     Grid_vdw_energy:          -36.907631
##########                      Grid_es_energy:           -1.572561
##########           Internal_energy_repulsive:           11.458982

@<TRIPOS>MOLECULE
ZINC001574157642
 53 55 1 0 0
SMALL
USER_CHARGES


@<TRIPOS>ATOM
      1 C1          0.8981    5.1098   44.3761 C.3     1  ZINC001574157642   -0.1400
      2 C2          0.8439    3.6600   44.8621 C.3     1  ZINC001574157642   -0.0900
      3 C3          2.2340    3.0314   44.7476 C.3     1  ZINC001574157642   -0.1500
      4 C4          0.3885    3.6283   46.3224 C.3     1  ZINC001574157642   -0.1300
      5 C5          0.0331    2.1927   46.7148 C.3     1  ZINC001574157642    0.1300
      6 H6          0.1218    1.5451   45.8426 H       1  ZINC001574157642    0.1100
      7 C7         -1.4035    2.1481   47.2393 C.3     1  ZINC001574157642    0.1100
      8 N8         -1.5676    3.1462   48.2990 N.pl3   1  ZINC001574157642   -0.7100
      9 C9         -2.6245    3.0413   49.1946 C.ar    1  ZINC001574157642    0.3700
     10 C10        -2.7679    3.9789   50.2159 C.ar    1  ZINC001574157642    0.0000
     11 N11        -3.7703    3.8797   51.0663 N.ar    1  ZINC001574157642   -0.3700
     12 C12        -4.6453    2.8848   50.9496 C.ar    1  ZINC001574157642    0.0800
     13 C13        -5.7740    2.7730   51.9065 C.2     1  ZINC001574157642    0.2300
     14 N14        -6.7281    1.8631   51.8959 N.2     1  ZINC001574157642   -0.2700
     15 N15        -7.5155    2.1061   52.8868 N.pl3   1  ZINC001574157642   -0.2300
     16 N16        -7.0910    3.1407   53.5245 N.2     1  ZINC001574157642   -0.0400
     17 N17        -6.0188    3.5741   52.9532 N.2     1  ZINC001574157642   -0.2600
     18 C18        -4.5020    1.9481   49.9287 C.ar    1  ZINC001574157642    0.1600
     19 N19        -3.5004    2.0511   49.0742 N.ar    1  ZINC001574157642   -0.5000
     20 N20         0.9494    1.7315   47.7607 N.am    1  ZINC001574157642   -0.7300
     21 C21         1.6774    0.6128   47.5734 C.2     1  ZINC001574157642    0.5200
     22 O22         1.5729   -0.0128   46.5397 O.2     1  ZINC001574157642   -0.5100
     23 C23         2.6213    0.1392   48.6485 C.3     1  ZINC001574157642   -0.1300
     24 H24         2.8755    0.9716   49.3046 H       1  ZINC001574157642    0.1100
     25 C25         3.8971   -0.4167   48.0047 C.3     1  ZINC001574157642   -0.1000
     26 C26         4.9069   -0.7192   49.1147 C.3     1  ZINC001574157642   -0.1400
     27 C27         4.2459   -1.5139   50.2041 C.2     1  ZINC001574157642    0.5200
     28 O28         4.9525   -2.1104   50.9889 O.2     1  ZINC001574157642   -0.5500
     29 N29         2.9237   -1.5985   50.3551 N.am    1  ZINC001574157642   -0.7200
     30 C30         1.9558   -0.9710   49.4628 C.3     1  ZINC001574157642    0.1200
     31 H31         1.6027    5.6722   44.9887 H       1  ZINC001574157642    0.0400
     32 H32         1.2225    5.1323   43.3358 H       1  ZINC001574157642    0.0500
     33 H33        -0.0923    5.5576   44.4576 H       1  ZINC001574157642    0.0700
     34 H34         0.1392    3.0976   44.2495 H       1  ZINC001574157642    0.0700
     35 H35         2.9386    3.5938   45.3603 H       1  ZINC001574157642    0.0500
     36 H36         2.1954    1.9985   45.0939 H       1  ZINC001574157642    0.0500
     37 H37         2.5584    3.0540   43.7073 H       1  ZINC001574157642    0.0500
     38 H38         1.1931    3.9912   46.9619 H       1  ZINC001574157642    0.0700
     39 H39        -0.4875    4.2655   46.4437 H       1  ZINC001574157642    0.0800
     40 H40        -2.0945    2.3658   46.4249 H       1  ZINC001574157642    0.0800
     41 H41        -1.6137    1.1560   47.6389 H       1  ZINC001574157642    0.0900
     42 H42        -0.9382    3.8805   48.3755 H       1  ZINC001574157642    0.4100
     43 H43        -2.0575    4.7869   50.3106 H       1  ZINC001574157642    0.1700
     44 H44        -8.3046    1.5906   53.1158 H       1  ZINC001574157642    0.4800
     45 H45        -5.2120    1.1398   49.8337 H       1  ZINC001574157642    0.1800
     46 H46         1.0321    2.2311   48.5880 H       1  ZINC001574157642    0.4000
     47 H47         3.6647   -1.3322   47.4607 H       1  ZINC001574157642    0.0800
     48 H48         4.3145    0.3217   47.3202 H       1  ZINC001574157642    0.0900
     49 H49         5.7378   -1.2915   48.7022 H       1  ZINC001574157642    0.1100
     50 H50         5.2831    0.2171   49.5269 H       1  ZINC001574157642    0.1000
     51 H51         2.5836   -2.1078   51.1072 H       1  ZINC001574157642    0.4000
     52 H52         1.1406   -0.5522   50.0529 H       1  ZINC001574157642    0.0800
     53 H53         1.5547   -1.7214   48.7815 H       1  ZINC001574157642    0.0700
@<TRIPOS>BOND
     1     1     2    1
     2     1    31    1
     3     1    32    1
     4     1    33    1
     5     2     3    1
     6     2     4    1
     7     2    34    1
     8     3    35    1
     9     3    36    1
    10     3    37    1
    11     4     5    1
    12     4    38    1
    13     4    39    1
    14     5     6    1
    15     5     7    1
    16     5    20    1
    17     7     8    1
    18     7    40    1
    19     7    41    1
    20     8     9    1
    21     8    42    1
    22     9    19   ar
    23     9    10   ar
    24    10    11   ar
    25    10    43    1
    26    11    12   ar
    27    12    13    1
    28    12    18   ar
    29    13    17    1
    30    13    14    2
    31    14    15    1
    32    15    16    1
    33    15    44    1
    34    16    17    2
    35    18    19   ar
    36    18    45    1
    37    20    21   am
    38    20    46    1
    39    21    22    2
    40    21    23    1
    41    23    24    1
    42    23    30    1
    43    23    25    1
    44    25    26    1
    45    25    47    1
    46    25    48    1
    47    26    27    1
    48    26    49    1
    49    26    50    1
    50    27    28    2
    51    27    29   am
    52    29    30    1
    53    29    51    1
    54    30    52    1
    55    30    53    1
@<TRIPOS>SUBSTRUCTURE
     1 ZINC001574157642        1 TEMP              0 ****  ****    0 ROOT


##########                                Name:    ZINC000489986384
##########                DOCK_Rotatable_Bonds:                  11
##########                         Heavy_Atoms:                  31
##########                    Molecular_Weight:             415.492
##########                DOCK_Rotatable_Bonds:                  11
##########                       Formal_Charge:          -0.0499997
##########                     HBond_Acceptors:                   6
##########                        HBond_Donors:                   2
##########                         Heavy_Atoms:                  31
##########                          Grid_Score:          -38.366001
##########                     Grid_vdw_energy:          -36.650497
##########                      Grid_es_energy:           -1.715503
##########           Internal_energy_repulsive:            9.194858

@<TRIPOS>MOLECULE
ZINC000489986384
 56 59 1 0 0
SMALL
USER_CHARGES


@<TRIPOS>ATOM
      1 O1         -0.8656    3.6727   52.1474 O.2     1  ZINC000489986384   -0.5000
      2 C2         -1.9683    4.1745   52.2023 C.2     1  ZINC000489986384    0.4900
      3 C3         -2.5763    4.7944   50.9706 C.3     1  ZINC000489986384    0.0900
      4 N4         -2.6899    3.7807   49.9191 N.pl3   1  ZINC000489986384   -0.4700
      5 C5         -1.8236    3.6003   48.8594 C.ar    1  ZINC000489986384    0.0700
      6 C6         -0.6615    4.2340   48.4421 C.ar    1  ZINC000489986384   -0.1100
      7 C7         -0.0159    3.7971   47.3046 C.ar    1  ZINC000489986384   -0.0900
      8 C8         -0.5206    2.7299   46.5758 C.ar    1  ZINC000489986384   -0.1300
      9 C9         -1.6636    2.0943   46.9712 C.ar    1  ZINC000489986384   -0.0600
     10 C10        -2.3342    2.5190   48.1209 C.ar    1  ZINC000489986384    0.0500
     11 N11        -3.4615    2.1049   48.7544 N.2     1  ZINC000489986384   -0.4600
     12 C12        -3.6654    2.8389   49.8091 C.2     1  ZINC000489986384    0.2800
     13 C13        -4.8203    2.6768   50.7635 C.3     1  ZINC000489986384    0.1400
     14 O14        -5.6482    1.5956   50.3303 O.3     1  ZINC000489986384   -0.3000
     15 C15        -6.6818    1.2469   51.1408 C.ar    1  ZINC000489986384    0.1300
     16 C16        -6.8240   -0.0683   51.5585 C.ar    1  ZINC000489986384   -0.2100
     17 C17        -7.8753   -0.4202   52.3829 C.ar    1  ZINC000489986384   -0.0800
     18 C18        -8.7856    0.5371   52.7911 C.ar    1  ZINC000489986384   -0.1600
     19 C19        -8.6463    1.8484   52.3758 C.ar    1  ZINC000489986384   -0.0800
     20 C20        -7.5933    2.2066   51.5565 C.ar    1  ZINC000489986384   -0.1500
     21 N21        -2.6525    4.1728   53.3636 N.am    1  ZINC000489986384   -0.7300
     22 C22        -2.0615    3.5702   54.5609 C.3     1  ZINC000489986384    0.1300
     23 C23        -2.5016    4.3561   55.7976 C.3     1  ZINC000489986384   -0.0600
     24 H24        -2.3945    5.4240   55.6067 H       1  ZINC000489986384    0.0900
     25 C25        -3.9652    4.0383   56.1098 C.3     1  ZINC000489986384    0.0800
     26 O26        -4.3964    4.8237   57.2230 O.3     1  ZINC000489986384   -0.5700
     27 C27        -1.6415    3.9672   56.9724 C.ar    1  ZINC000489986384   -0.0700
     28 C28        -1.2428    4.9261   57.8846 C.ar    1  ZINC000489986384   -0.1100
     29 C29        -0.4537    4.5693   58.9622 C.ar    1  ZINC000489986384   -0.1200
     30 C30        -0.0638    3.2535   59.1276 C.ar    1  ZINC000489986384   -0.1200
     31 C31        -0.4632    2.2943   58.2158 C.ar    1  ZINC000489986384   -0.1200
     32 C32        -1.2558    2.6503   57.1407 C.ar    1  ZINC000489986384   -0.1100
     33 H33        -3.5665    5.1822   51.2099 H       1  ZINC000489986384    0.1200
     34 H34        -1.9413    5.6092   50.6226 H       1  ZINC000489986384    0.1200
     35 H35        -0.2648    5.0657   49.0055 H       1  ZINC000489986384    0.1200
     36 H36         0.8884    4.2893   46.9787 H       1  ZINC000489986384    0.1300
     37 H37        -0.0049    2.3985   45.6865 H       1  ZINC000489986384    0.1300
     38 H38        -2.0482    1.2651   46.3959 H       1  ZINC000489986384    0.1300
     39 H39        -4.4391    2.4649   51.7625 H       1  ZINC000489986384    0.0800
     40 H40        -5.4054    3.5962   50.7854 H       1  ZINC000489986384    0.1000
     41 H41        -6.1136   -0.8166   51.2393 H       1  ZINC000489986384    0.1300
     42 H42        -7.9864   -1.4440   52.7083 H       1  ZINC000489986384    0.1300
     43 H43        -9.6069    0.2598   53.4353 H       1  ZINC000489986384    0.1200
     44 H44        -9.3588    2.5943   52.6959 H       1  ZINC000489986384    0.1300
     45 H45        -7.4849    3.2312   51.2324 H       1  ZINC000489986384    0.1300
     46 H46        -3.5361    4.5707   53.4064 H       1  ZINC000489986384    0.4000
     47 H47        -2.3951    2.5363   54.6498 H       1  ZINC000489986384    0.0800
     48 H48        -0.9747    3.5958   54.4820 H       1  ZINC000489986384    0.0800
     49 H49        -4.5809    4.2708   55.2409 H       1  ZINC000489986384    0.0500
     50 H50        -4.0636    2.9801   56.3520 H       1  ZINC000489986384    0.0500
     51 H51        -3.9200    4.6377   58.0437 H       1  ZINC000489986384    0.3800
     52 H52        -1.5474    5.9541   57.7553 H       1  ZINC000489986384    0.1200
     53 H53        -0.1417    5.3186   59.6745 H       1  ZINC000489986384    0.1200
     54 H54         0.5531    2.9748   59.9691 H       1  ZINC000489986384    0.1200
     55 H55        -0.1584    1.2663   58.3450 H       1  ZINC000489986384    0.1200
     56 H56        -1.5679    1.9010   56.4283 H       1  ZINC000489986384    0.1200
@<TRIPOS>BOND
     1     1     2    2
     2     2     3    1
     3     2    21   am
     4     3     4    1
     5     3    33    1
     6     3    34    1
     7     4    12    1
     8     4     5    1
     9     5    10   ar
    10     5     6   ar
    11     6     7   ar
    12     6    35    1
    13     7     8   ar
    14     7    36    1
    15     8     9   ar
    16     8    37    1
    17     9    10   ar
    18     9    38    1
    19    10    11    1
    20    11    12    2
    21    12    13    1
    22    13    14    1
    23    13    39    1
    24    13    40    1
    25    14    15    1
    26    15    20   ar
    27    15    16   ar
    28    16    17   ar
    29    16    41    1
    30    17    18   ar
    31    17    42    1
    32    18    19   ar
    33    18    43    1
    34    19    20   ar
    35    19    44    1
    36    20    45    1
    37    21    22    1
    38    21    46    1
    39    22    23    1
    40    22    47    1
    41    22    48    1
    42    23    24    1
    43    23    25    1
    44    23    27    1
    45    25    26    1
    46    25    49    1
    47    25    50    1
    48    26    51    1
    49    27    32   ar
    50    27    28   ar
    51    28    29   ar
    52    28    52    1
    53    29    30   ar
    54    29    53    1
    55    30    31   ar
    56    30    54    1
    57    31    32   ar
    58    31    55    1
    59    32    56    1
@<TRIPOS>SUBSTRUCTURE
     1 ZINC000489986384        1 TEMP              0 ****  ****    0 ROOT


##########                                Name:    ZINC000506566356
##########                DOCK_Rotatable_Bonds:                  10
##########                         Heavy_Atoms:                  28
##########                    Molecular_Weight:               415.9
##########                DOCK_Rotatable_Bonds:                  10
##########                       Formal_Charge:           0.0199998
##########                     HBond_Acceptors:                   8
##########                        HBond_Donors:                   2
##########                         Heavy_Atoms:                  28
##########                          Grid_Score:          -38.330570
##########                     Grid_vdw_energy:          -37.671047
##########                      Grid_es_energy:           -0.659524
##########           Internal_energy_repulsive:            8.218386

@<TRIPOS>MOLECULE
ZINC000506566356
 46 48 1 0 0
SMALL
USER_CHARGES


@<TRIPOS>ATOM
      1 O1         -2.6407    1.4000   47.4496 O.2     1  ZINC000506566356   -0.5100
      2 C2         -2.1515    2.4427   47.8324 C.2     1  ZINC000506566356    0.5100
      3 N3         -2.6928    3.0969   48.8790 N.am    1  ZINC000506566356   -0.7000
      4 C4         -3.8754    2.5526   49.5508 C.3     1  ZINC000506566356    0.1200
      5 C5         -3.9839    3.1494   50.9555 C.3     1  ZINC000506566356   -0.0900
      6 C6         -5.2129    2.6067   51.6382 C.ar    1  ZINC000506566356   -0.0700
      7 C7         -5.9389    3.4115   52.4961 C.ar    1  ZINC000506566356   -0.1100
      8 C8         -7.0668    2.9145   53.1225 C.ar    1  ZINC000506566356   -0.1000
      9 C9         -7.4688    1.6127   52.8916 C.ar    1  ZINC000506566356   -0.1100
     10 C10        -6.7424    0.8066   52.0330 C.ar    1  ZINC000506566356   -0.0300
     11 Cl11       -7.2471   -0.8288   51.7420 Cl      1  ZINC000506566356   -0.0700
     12 C12        -5.6173    1.3061   51.4021 C.ar    1  ZINC000506566356   -0.1000
     13 C13        -0.9459    2.9975   47.1476 C.2     1  ZINC000506566356    0.5100
     14 O14        -0.6460    4.1642   47.2974 O.2     1  ZINC000506566356   -0.5000
     15 N15        -0.1909    2.2029   46.3633 N.am    1  ZINC000506566356   -0.6300
     16 C16         0.9383    2.7226   45.7219 C.ar    1  ZINC000506566356    0.1100
     17 C17         0.7927    3.5333   44.6052 C.ar    1  ZINC000506566356   -0.0800
     18 C18         1.9101    4.0454   43.9732 C.ar    1  ZINC000506566356   -0.1400
     19 C19         3.1740    3.7521   44.4507 C.ar    1  ZINC000506566356   -0.0900
     20 C20         3.3274    2.9446   45.5628 C.ar    1  ZINC000506566356   -0.1900
     21 C21         2.2129    2.4321   46.2060 C.ar    1  ZINC000506566356    0.1200
     22 O22         2.3621    1.6380   47.2994 O.3     1  ZINC000506566356   -0.3100
     23 C23         3.0571    0.4031   47.1144 C.3     1  ZINC000506566356    0.1400
     24 C24         2.9242   -0.4391   48.3570 C.2     1  ZINC000506566356    0.0500
     25 C25         3.9405   -1.1420   48.8660 C.2     1  ZINC000506566356   -0.2300
     26 S26         3.3570   -1.9742   50.3053 S.3     1  ZINC000506566356    0.1400
     27 C27         1.8047   -1.2942   50.0795 C.2     1  ZINC000506566356    0.0200
     28 N28         1.7978   -0.5385   49.0337 N.2     1  ZINC000506566356   -0.4700
     29 H29        -2.2995    3.9282   49.1874 H       1  ZINC000506566356    0.4200
     30 H30        -4.7676    2.8063   48.9783 H       1  ZINC000506566356    0.0800
     31 H31        -3.7859    1.4687   49.6225 H       1  ZINC000506566356    0.0800
     32 H32        -3.0992    2.8817   51.5333 H       1  ZINC000506566356    0.0900
     33 H33        -4.0569    4.2346   50.8845 H       1  ZINC000506566356    0.0900
     34 H34        -5.6247    4.4288   52.6773 H       1  ZINC000506566356    0.1300
     35 H35        -7.6336    3.5438   53.7926 H       1  ZINC000506566356    0.1300
     36 H36        -8.3495    1.2244   53.3816 H       1  ZINC000506566356    0.1300
     37 H37        -5.0501    0.6774   50.7318 H       1  ZINC000506566356    0.1300
     38 H38        -0.4306    1.2706   46.2437 H       1  ZINC000506566356    0.4300
     39 H39        -0.1933    3.7637   44.2299 H       1  ZINC000506566356    0.1500
     40 H40         1.7957    4.6759   43.1040 H       1  ZINC000506566356    0.1300
     41 H41         4.0442    4.1547   43.9535 H       1  ZINC000506566356    0.1300
     42 H42         4.3164    2.7170   45.9325 H       1  ZINC000506566356    0.1400
     43 H43         2.6293   -0.1309   46.2659 H       1  ZINC000506566356    0.0900
     44 H44         4.1111    0.6046   46.9231 H       1  ZINC000506566356    0.0900
     45 H45         4.9423   -1.1913   48.4658 H       1  ZINC000506566356    0.1800
     46 H46         0.9541   -1.4684   50.7220 H       1  ZINC000506566356    0.2100
@<TRIPOS>BOND
     1     1     2    2
     2     2     3   am
     3     2    13    1
     4     3     4    1
     5     3    29    1
     6     4     5    1
     7     4    30    1
     8     4    31    1
     9     5     6    1
    10     5    32    1
    11     5    33    1
    12     6    12   ar
    13     6     7   ar
    14     7     8   ar
    15     7    34    1
    16     8     9   ar
    17     8    35    1
    18     9    10   ar
    19     9    36    1
    20    10    11    1
    21    10    12   ar
    22    12    37    1
    23    13    14    2
    24    13    15   am
    25    15    16    1
    26    15    38    1
    27    16    21   ar
    28    16    17   ar
    29    17    18   ar
    30    17    39    1
    31    18    19   ar
    32    18    40    1
    33    19    20   ar
    34    19    41    1
    35    20    21   ar
    36    20    42    1
    37    21    22    1
    38    22    23    1
    39    23    24    1
    40    23    43    1
    41    23    44    1
    42    24    28    1
    43    24    25    2
    44    25    26    1
    45    25    45    1
    46    26    27    1
    47    27    28    2
    48    27    46    1
@<TRIPOS>SUBSTRUCTURE
     1 ZINC000506566356        1 TEMP              0 ****  ****    0 ROOT


##########                                Name:    ZINC000508765459
##########                DOCK_Rotatable_Bonds:                  10
##########                         Heavy_Atoms:                  29
##########                    Molecular_Weight:               405.5
##########                DOCK_Rotatable_Bonds:                  10
##########                       Formal_Charge:         -6.4075e-07
##########                     HBond_Acceptors:                  10
##########                        HBond_Donors:                   1
##########                         Heavy_Atoms:                  29
##########                          Grid_Score:          -38.121361
##########                     Grid_vdw_energy:          -36.888783
##########                      Grid_es_energy:           -1.232578
##########           Internal_energy_repulsive:           15.857238

@<TRIPOS>MOLECULE
ZINC000508765459
 60 62 1 0 0
SMALL
USER_CHARGES


@<TRIPOS>ATOM
      1 C1          3.4320   -2.1406   50.6485 C.3     1  ZINC000508765459    0.0300
      2 O2          3.5636   -0.8577   50.0328 O.3     1  ZINC000508765459   -0.3900
      3 C3          2.7253   -0.6727   48.8905 C.3     1  ZINC000508765459    0.0500
      4 C4          2.8628    0.7647   48.3845 C.3     1  ZINC000508765459    0.1100
      5 N5          1.5436    1.4013   48.3579 N.am    1  ZINC000508765459   -0.5900
      6 C6          1.0562    2.0012   49.5923 C.3     1  ZINC000508765459    0.1000
      7 C7         -0.0156    3.0527   49.2983 C.3     1  ZINC000508765459    0.1200
      8 N8         -0.9700    2.4791   48.3345 N.am    1  ZINC000508765459   -0.6400
      9 C9         -2.2710    2.3185   48.6472 C.2     1  ZINC000508765459    0.7100
     10 O10        -3.0376    1.8409   47.8331 O.2     1  ZINC000508765459   -0.5800
     11 N11        -2.7225    2.6872   49.8624 N.am    1  ZINC000508765459   -0.7400
     12 C12        -4.1365    2.5109   50.2030 C.3     1  ZINC000508765459    0.1400
     13 C13        -4.3614    2.9011   51.6653 C.3     1  ZINC000508765459   -0.1400
     14 C14        -5.7502    3.5242   51.8190 C.3     1  ZINC000508765459    0.0600
     15 N15        -6.6661    2.5392   52.4096 N.3     1  ZINC000508765459   -0.5400
     16 C16        -6.9073    1.4231   51.4845 C.3     1  ZINC000508765459    0.0500
     17 C17        -7.7998    0.3831   52.1657 C.3     1  ZINC000508765459    0.0700
     18 N18        -9.0651    1.0143   52.5662 N.3     1  ZINC000508765459   -0.4600
     19 C19        -9.9280    0.0862   53.1228 C.ar    1  ZINC000508765459    0.4900
     20 N20        -9.9010   -0.1186   54.4315 N.ar    1  ZINC000508765459   -0.5500
     21 C21       -10.7125   -0.9980   54.9952 C.ar    1  ZINC000508765459    0.1700
     22 C22       -11.5975   -1.7082   54.1994 C.ar    1  ZINC000508765459   -0.2600
     23 C23       -11.5995   -1.4693   52.8341 C.ar    1  ZINC000508765459    0.1700
     24 N24       -10.7652   -0.5724   52.3348 N.ar    1  ZINC000508765459   -0.5300
     25 C25        -8.8240    2.1304   53.4913 C.3     1  ZINC000508765459    0.0700
     26 C26        -7.9314    3.1703   52.8101 C.3     1  ZINC000508765459    0.0600
     27 C27        -0.4459    2.0895   47.0171 C.3     1  ZINC000508765459    0.1000
     28 C28         0.8755    1.3955   47.2035 C.2     1  ZINC000508765459    0.5100
     29 O29         1.3516    0.7956   46.2630 O.2     1  ZINC000508765459   -0.5400
     30 H30         3.6923   -2.9172   49.9294 H       1  ZINC000508765459    0.0400
     31 H31         4.1006   -2.2018   51.5073 H       1  ZINC000508765459    0.0900
     32 H32         2.4027   -2.2813   50.9787 H       1  ZINC000508765459    0.0400
     33 H33         3.0250   -1.3650   48.1038 H       1  ZINC000508765459    0.0500
     34 H34         1.6881   -0.8631   49.1663 H       1  ZINC000508765459    0.0600
     35 H35         3.5221    1.3225   49.0495 H       1  ZINC000508765459    0.1100
     36 H36         3.2830    0.7572   47.3787 H       1  ZINC000508765459    0.0900
     37 H37         0.6310    1.2230   50.2260 H       1  ZINC000508765459    0.0700
     38 H38         1.8883    2.4734   50.1146 H       1  ZINC000508765459    0.1000
     39 H39        -0.5358    3.3150   50.2195 H       1  ZINC000508765459    0.1200
     40 H40         0.4487    3.9417   48.8715 H       1  ZINC000508765459    0.0800
     41 H41        -2.1113    3.0692   50.5115 H       1  ZINC000508765459    0.4000
     42 H42        -4.7469    3.1447   49.5598 H       1  ZINC000508765459    0.0700
     43 H43        -4.4178    1.4678   50.0580 H       1  ZINC000508765459    0.0700
     44 H44        -4.2898    2.0132   52.2933 H       1  ZINC000508765459    0.0700
     45 H45        -3.6036    3.6232   51.9692 H       1  ZINC000508765459    0.0800
     46 H46        -5.6871    4.3970   52.4687 H       1  ZINC000508765459    0.0800
     47 H47        -6.1234    3.8261   50.8403 H       1  ZINC000508765459    0.0400
     48 H48        -7.4018    1.7951   50.5872 H       1  ZINC000508765459    0.0500
     49 H49        -5.9567    0.9644   51.2126 H       1  ZINC000508765459    0.0900
     50 H50        -8.0038   -0.4318   51.4713 H       1  ZINC000508765459    0.0900
     51 H51        -7.2937   -0.0086   53.0480 H       1  ZINC000508765459    0.0600
     52 H52       -10.6856   -1.1608   56.0625 H       1  ZINC000508765459    0.1700
     53 H53       -12.2709   -2.4325   54.6337 H       1  ZINC000508765459    0.1500
     54 H54       -12.2765   -2.0062   52.1862 H       1  ZINC000508765459    0.1700
     55 H55        -9.7746    2.5892   53.7633 H       1  ZINC000508765459    0.1000
     56 H56        -8.3294    1.7585   54.3886 H       1  ZINC000508765459    0.0500
     57 H57        -7.7274    3.9853   53.5047 H       1  ZINC000508765459    0.0900
     58 H58        -8.4376    3.5621   51.9278 H       1  ZINC000508765459    0.0500
     59 H59        -1.1498    1.4154   46.5289 H       1  ZINC000508765459    0.1100
     60 H60        -0.3038    2.9788   46.4031 H       1  ZINC000508765459    0.1100
@<TRIPOS>BOND
     1     1     2    1
     2     1    30    1
     3     1    31    1
     4     1    32    1
     5     2     3    1
     6     3     4    1
     7     3    33    1
     8     3    34    1
     9     4     5    1
    10     4    35    1
    11     4    36    1
    12     5    28   am
    13     5     6    1
    14     6     7    1
    15     6    37    1
    16     6    38    1
    17     7     8    1
    18     7    39    1
    19     7    40    1
    20     8     9   am
    21     8    27    1
    22     9    10    2
    23     9    11   am
    24    11    12    1
    25    11    41    1
    26    12    13    1
    27    12    42    1
    28    12    43    1
    29    13    14    1
    30    13    44    1
    31    13    45    1
    32    14    15    1
    33    14    46    1
    34    14    47    1
    35    15    26    1
    36    15    16    1
    37    16    17    1
    38    16    48    1
    39    16    49    1
    40    17    18    1
    41    17    50    1
    42    17    51    1
    43    18    19    1
    44    18    25    1
    45    19    24   ar
    46    19    20   ar
    47    20    21   ar
    48    21    22   ar
    49    21    52    1
    50    22    23   ar
    51    22    53    1
    52    23    24   ar
    53    23    54    1
    54    25    26    1
    55    25    55    1
    56    25    56    1
    57    26    57    1
    58    26    58    1
    59    27    28    1
    60    27    59    1
    61    27    60    1
    62    28    29    2
@<TRIPOS>SUBSTRUCTURE
     1 ZINC000508765459        1 TEMP              0 ****  ****    0 ROOT


##########                                Name:     oleObject80.pdb
##########                DOCK_Rotatable_Bonds:                  14
##########                         Heavy_Atoms:                  51
##########                    Molecular_Weight:             703.283
##########                DOCK_Rotatable_Bonds:                  14
##########                       Formal_Charge:         0.000299793
##########                     HBond_Acceptors:                  10
##########                        HBond_Donors:                   3
##########                         Heavy_Atoms:                  51
##########                          Grid_Score:          -37.860031
##########                     Grid_vdw_energy:          -37.641373
##########                      Grid_es_energy:           -0.218657
##########           Internal_energy_repulsive:           69.256287

@<TRIPOS>MOLECULE
oleObject80.pdb
 94 99 1 0 0
SMALL
NO_CHARGES


@<TRIPOS>ATOM
      1 C           3.5675   -1.4778   50.3994 C.ar    1  UNL        -0.0620
      2 C           4.2115   -0.2584   50.6526 C.ar    1  UNL        -0.0590
      3 C           4.5449    0.6127   49.5972 C.ar    1  UNL        -0.0456
      4 C           4.2276    0.2538   48.2623 C.ar    1  UNL        -0.0185
      5 C           3.5770   -0.9774   48.0245 C.ar    1  UNL        -0.0565
      6 C           3.2491   -1.8365   49.0835 C.ar    1  UNL        -0.0619
      7 C           4.5876    1.1818   47.0882 C.3     1  UNL         0.0931
      8 C           4.8621    0.4375   45.7693 C.ar    1  UNL         0.0683
      9 C           4.8570    1.1114   44.5217 C.ar    1  UNL        -0.0272
     10 C           5.1102    0.3654   43.3553 C.ar    1  UNL        -0.0559
     11 C           5.3626   -1.0096   43.4640 C.ar    1  UNL        -0.0435
     12 C           5.3574   -1.5946   44.7385 C.ar    1  UNL         0.0272
     13 N           5.1163   -0.8898   45.8596 N.ar    1  UNL        -0.2587
     14 C           4.5898    2.6081   44.4056 C.3     1  UNL        -0.0379
     15 N           3.6710    2.3480   46.9320 N.am    1  UNL        -0.2918
     16 C           2.2866    2.1581   46.8545 C.2     1  UNL         0.2180
     17 O           1.7857    1.0920   47.1732 O.2     1  UNL        -0.2772
     18 C           1.4078    3.4238   46.6928 C.3     1  UNL         0.0385
     19 C           1.0518    4.0614   48.0584 C.3     1  UNL        -0.0289
     20 C           0.0084    3.2262   48.8284 C.3     1  UNL        -0.0010
     21 N          -1.2276    3.0369   48.0393 N.4     1  UNL        -0.3010
     22 C          -0.9827    2.4149   46.7158 C.3     1  UNL        -0.0010
     23 C           0.1022    3.1592   45.8967 C.3     1  UNL        -0.0289
     24 C          -2.2813    2.3704   48.8364 C.3     1  UNL         0.0222
     25 C          -2.7912    3.2225   50.0168 C.3     1  UNL         0.0661
     26 O          -3.8118    2.4676   50.6940 O.3     1  UNL        -0.3432
     27 C          -4.5624    2.9665   51.7413 C.ar    1  UNL         0.0937
     28 C          -4.0607    3.9451   52.6232 C.ar    1  UNL        -0.0284
     29 C          -4.8579    4.4234   53.6762 C.ar    1  UNL        -0.0381
     30 C          -6.1677    3.9475   53.8589 C.ar    1  UNL         0.0319
     31 C          -6.6594    2.9539   52.9903 C.ar    1  UNL        -0.0194
     32 C          -5.8661    2.4709   51.9366 C.ar    1  UNL         0.0727
     33 CL         -6.5256    1.2364   50.8798 Cl      1  UNL        -0.0814
     34 N          -6.9167    4.4373   54.9273 N.pl3   1  UNL        -0.3136
     35 C          -7.5578    3.7904   55.9834 C.ar    1  UNL         0.0489
     36 C          -7.0884    2.5382   56.4176 C.ar    1  UNL         0.0488
     37 N          -7.6393    1.8569   57.4421 N.ar    1  UNL        -0.2543
     38 C          -8.6862    2.3807   58.1169 C.ar    1  UNL         0.0703
     39 C          -9.2078    3.6492   57.7521 C.ar    1  UNL        -0.0339
     40 C          -8.6373    4.3594   56.6836 C.ar    1  UNL        -0.0371
     41 C          -9.2436    1.5638   59.2521 C.ar    1  UNL         0.0009
     42 C         -10.6215    1.6027   59.5904 C.ar    1  UNL        -0.0402
     43 C         -11.1558    0.8427   60.6519 C.ar    1  UNL         0.0375
     44 C         -10.2890    0.0192   61.4000 C.ar    1  UNL        -0.0496
     45 C          -8.9227   -0.0349   61.0916 C.ar    1  UNL        -0.0608
     46 C          -8.4063    0.7277   60.0343 C.ar    1  UNL        -0.0528
     47 C         -12.6313    0.9327   60.9586 C.2     1  UNL         0.2403
     48 O         -13.4178    1.5025   60.2237 O.2     1  UNL        -0.2722
     49 N         -13.0773    0.3380   62.1200 N.am    1  UNL        -0.3251
     50 C           4.2821    3.6962   46.9481 C.3     1  UNL         0.0037
     51 C           5.2413    1.9282   49.9335 C.3     1  UNL        -0.0394
     52 H           3.3145   -2.1413   51.2214 H       1  UNL         0.0623
     53 H           4.4518    0.0100   51.6775 H       1  UNL         0.0626
     54 H           3.3114   -1.2765   47.0155 H       1  UNL         0.0627
     55 H           2.7472   -2.7788   48.8831 H       1  UNL         0.0623
     56 H           5.5564    1.6049   47.3650 H       1  UNL         0.0626
     57 H           5.1117    0.8428   42.3795 H       1  UNL         0.0627
     58 H           5.5606   -1.6089   42.5803 H       1  UNL         0.0639
     59 H           5.5514   -2.6587   44.8668 H       1  UNL         0.0840
     60 H           3.5532    2.8443   44.6769 H       1  UNL         0.0280
     61 H           4.7521    2.9697   43.3826 H       1  UNL         0.0280
     62 H           5.2537    3.1829   45.0631 H       1  UNL         0.0280
     63 H           1.9827    4.1533   46.1105 H       1  UNL         0.0402
     64 H           0.6435    5.0663   47.8898 H       1  UNL         0.0288
     65 H           1.9477    4.1906   48.6752 H       1  UNL         0.0288
     66 H          -0.2243    3.7418   49.7691 H       1  UNL         0.0431
     67 H           0.4436    2.2502   49.0831 H       1  UNL         0.0431
     68 H          -1.9036    2.4087   46.1209 H       1  UNL         0.0431
     69 H          -0.6805    1.3697   46.8560 H       1  UNL         0.0431
     70 H          -0.3127    4.1243   45.5783 H       1  UNL         0.0288
     71 H           0.3263    2.5999   44.9794 H       1  UNL         0.0288
     72 H          -1.8827    1.4343   49.2490 H       1  UNL         0.0455
     73 H          -3.1299    2.1105   48.1901 H       1  UNL         0.0455
     74 H          -3.2068    4.1684   49.6489 H       1  UNL         0.0586
     75 H          -1.9591    3.4348   50.7001 H       1  UNL         0.0586
     76 H          -3.0573    4.3408   52.5056 H       1  UNL         0.0652
     77 H          -4.4574    5.1769   54.3488 H       1  UNL         0.0644
     78 H          -7.6497    2.5353   53.1387 H       1  UNL         0.0659
     79 H          -7.0210    5.4439   54.9340 H       1  UNL         0.1528
     80 H          -6.2461    2.0577   55.9217 H       1  UNL         0.0861
     81 H         -10.0507    4.0827   58.2790 H       1  UNL         0.0646
     82 H          -9.0212    5.3409   56.4235 H       1  UNL         0.0644
     83 H         -11.2902    2.2480   59.0315 H       1  UNL         0.0638
     84 H         -10.6601   -0.5820   62.2242 H       1  UNL         0.0631
     85 H          -8.2608   -0.6709   61.6728 H       1  UNL         0.0623
     86 H          -7.3442    0.6583   59.8167 H       1  UNL         0.0630
     87 H         -14.0580    0.3748   62.3635 H       1  UNL         0.1458
     88 H         -12.4102   -0.1330   62.7178 H       1  UNL         0.1458
     89 H           5.3759    3.6484   46.9302 H       1  UNL         0.0433
     90 H           3.9869    4.2339   47.8566 H       1  UNL         0.0433
     91 H           3.9451    4.2613   46.0702 H       1  UNL         0.0433
     92 H           5.3687    2.0552   51.0157 H       1  UNL         0.0280
     93 H           4.6626    2.7876   49.5739 H       1  UNL         0.0280
     94 H           6.2397    1.9760   49.4817 H       1  UNL         0.0280
@<TRIPOS>BOND
     1     1     2   ar
     2     1     6   ar
     3     1    52    1
     4     2     3   ar
     5     2    53    1
     6     3     4   ar
     7     3    51    1
     8     4     5   ar
     9     4     7    1
    10     5     6   ar
    11     5    54    1
    12     6    55    1
    13     7     8    1
    14     7    15    1
    15     7    56    1
    16     8     9   ar
    17     8    13   ar
    18     9    10   ar
    19     9    14    1
    20    10    11   ar
    21    10    57    1
    22    11    12   ar
    23    11    58    1
    24    12    13   ar
    25    12    59    1
    26    14    60    1
    27    14    61    1
    28    14    62    1
    29    15    16   am
    30    15    50    1
    31    16    17    2
    32    16    18    1
    33    18    19    1
    34    18    23    1
    35    18    63    1
    36    19    20    1
    37    19    64    1
    38    19    65    1
    39    20    21    1
    40    20    66    1
    41    20    67    1
    42    21    22    1
    43    21    24    1
    44    22    23    1
    45    22    68    1
    46    22    69    1
    47    23    70    1
    48    23    71    1
    49    24    25    1
    50    24    72    1
    51    24    73    1
    52    25    26    1
    53    25    74    1
    54    25    75    1
    55    26    27    1
    56    27    28   ar
    57    27    32   ar
    58    28    29   ar
    59    28    76    1
    60    29    30   ar
    61    29    77    1
    62    30    31   ar
    63    30    34    1
    64    31    32   ar
    65    31    78    1
    66    32    33    1
    67    34    35    1
    68    34    79    1
    69    35    36   ar
    70    35    40   ar
    71    36    37   ar
    72    36    80    1
    73    37    38   ar
    74    38    39   ar
    75    38    41    1
    76    39    40   ar
    77    39    81    1
    78    40    82    1
    79    41    42   ar
    80    41    46   ar
    81    42    43   ar
    82    42    83    1
    83    43    44   ar
    84    43    47    1
    85    44    45   ar
    86    44    84    1
    87    45    46   ar
    88    45    85    1
    89    46    86    1
    90    47    48    2
    91    47    49   am
    92    49    87    1
    93    49    88    1
    94    50    89    1
    95    50    90    1
    96    50    91    1
    97    51    92    1
    98    51    93    1
    99    51    94    1
@<TRIPOS>SUBSTRUCTURE
     1 UNL         1 TEMP              0 ****  ****    0 ROOT


##########                                Name:    ZINC000439870054
##########                DOCK_Rotatable_Bonds:                   5
##########                         Heavy_Atoms:                  27
##########                    Molecular_Weight:             421.974
##########                DOCK_Rotatable_Bonds:                   5
##########                       Formal_Charge:           0.0200003
##########                     HBond_Acceptors:                   9
##########                        HBond_Donors:                   0
##########                         Heavy_Atoms:                  27
##########                          Grid_Score:          -37.459568
##########                     Grid_vdw_energy:          -36.494984
##########                      Grid_es_energy:           -0.964584
##########           Internal_energy_repulsive:           61.505768

@<TRIPOS>MOLECULE
ZINC000439870054
 47 50 1 0 0
SMALL
USER_CHARGES


@<TRIPOS>ATOM
      1 C1          2.8474   -2.0615   49.5432 C.3     1  ZINC000439870054   -0.1400
      2 C2          3.1832   -0.5751   49.4062 C.3     1  ZINC000439870054    0.0000
      3 C3          4.5587   -0.4210   48.7540 C.3     1  ZINC000439870054   -0.1400
      4 C4          2.1426    0.0981   48.5488 C.2     1  ZINC000439870054    0.1900
      5 N5          1.9270   -0.1161   47.2764 N.2     1  ZINC000439870054   -0.2900
      6 N6          0.9626    0.6345   46.8657 N.2     1  ZINC000439870054   -0.2700
      7 C7          0.5271    1.3557   47.8521 C.2     1  ZINC000439870054    0.1600
      8 C8         -0.5767    2.3857   47.8525 C.3     1  ZINC000439870054    0.2400
      9 H9         -0.2560    3.2750   47.3099 H       1  ZINC000439870054    0.1100
     10 C10        -1.8341    1.8037   47.2034 C.3     1  ZINC000439870054   -0.1300
     11 N11        -0.8473    2.7261   49.2622 N.am    1  ZINC000439870054   -0.6300
     12 C12        -2.1105    2.8505   49.7150 C.2     1  ZINC000439870054    0.5300
     13 O13        -3.0446    2.6819   48.9601 O.2     1  ZINC000439870054   -0.4900
     14 C14        -2.3623    3.1990   51.1594 C.3     1  ZINC000439870054   -0.0700
     15 C15        -3.8470    3.2760   51.4061 C.2     1  ZINC000439870054    0.0900
     16 C16        -4.4908    4.4431   51.4997 C.2     1  ZINC000439870054   -0.2400
     17 S17        -6.1975    4.1114   51.7884 S.3     1  ZINC000439870054    0.1300
     18 C18        -5.8629    2.3821   51.7532 C.2     1  ZINC000439870054    0.1400
     19 C19        -6.8602    1.3157   51.9323 C.2     1  ZINC000439870054   -0.1300
     20 C20        -6.6715    0.0125   51.6307 C.2     1  ZINC000439870054   -0.1000
     21 C21        -7.7544   -0.8003   51.8871 C.2     1  ZINC000439870054   -0.1200
     22 C22        -8.8243   -0.1761   52.3944 C.2     1  ZINC000439870054   -0.1500
     23 Cl23      -10.3237   -0.9447   52.8128 Cl      1  ZINC000439870054    0.0000
     24 S24        -8.4804    1.5385   52.5797 S.3     1  ZINC000439870054    0.2500
     25 N25        -4.5890    2.1995   51.5371 N.2     1  ZINC000439870054   -0.4400
     26 C26         0.3010    2.9255   50.1595 C.3     1  ZINC000439870054    0.0900
     27 C27         1.0819    1.6116   50.2805 C.3     1  ZINC000439870054    0.0900
     28 N28         1.2551    1.0297   48.9502 N.pl3   1  ZINC000439870054   -0.4700
     29 H29         3.6001   -2.5484   50.1632 H       1  ZINC000439870054    0.0700
     30 H30         1.8674   -2.1713   50.0078 H       1  ZINC000439870054    0.0500
     31 H31         2.8354   -2.5237   48.5561 H       1  ZINC000439870054    0.0700
     32 H32         3.1953   -0.1128   50.3932 H       1  ZINC000439870054    0.0800
     33 H33         4.7980    0.6379   48.6564 H       1  ZINC000439870054    0.0500
     34 H34         5.3114   -0.9079   49.3741 H       1  ZINC000439870054    0.0700
     35 H35         4.5467   -0.8833   47.7670 H       1  ZINC000439870054    0.0700
     36 H36        -2.2432    1.0205   47.8416 H       1  ZINC000439870054    0.0600
     37 H37        -2.5755    2.5925   47.0758 H       1  ZINC000439870054    0.0900
     38 H38        -1.5795    1.3835   46.2304 H       1  ZINC000439870054    0.0700
     39 H39        -1.9270    2.4316   51.7996 H       1  ZINC000439870054    0.1100
     40 H40        -1.9059    4.1627   51.3855 H       1  ZINC000439870054    0.1200
     41 H41        -4.0421    5.4217   51.4136 H       1  ZINC000439870054    0.1800
     42 H42        -5.7455   -0.3626   51.2206 H       1  ZINC000439870054    0.1500
     43 H43        -7.7410   -1.8626   51.6928 H       1  ZINC000439870054    0.1600
     44 H44         0.9514    3.6994   49.7519 H       1  ZINC000439870054    0.0900
     45 H45        -0.0550    3.2294   51.1439 H       1  ZINC000439870054    0.1200
     46 H46         2.0578    1.8076   50.7248 H       1  ZINC000439870054    0.1100
     47 H47         0.5276    0.9150   50.9095 H       1  ZINC000439870054    0.0900
@<TRIPOS>BOND
     1     1     2    1
     2     1    29    1
     3     1    30    1
     4     1    31    1
     5     2     3    1
     6     2     4    1
     7     2    32    1
     8     3    33    1
     9     3    34    1
    10     3    35    1
    11     4    28    1
    12     4     5    2
    13     5     6    1
    14     6     7    2
    15     7    28    1
    16     7     8    1
    17     8     9    1
    18     8    10    1
    19     8    11    1
    20    10    36    1
    21    10    37    1
    22    10    38    1
    23    11    12   am
    24    11    26    1
    25    12    13    2
    26    12    14    1
    27    14    15    1
    28    14    39    1
    29    14    40    1
    30    15    25    1
    31    15    16    2
    32    16    17    1
    33    16    41    1
    34    17    18    1
    35    18    19    1
    36    18    25    2
    37    19    24    1
    38    19    20    2
    39    20    21    1
    40    20    42    1
    41    21    22    2
    42    21    43    1
    43    22    23    1
    44    22    24    1
    45    26    27    1
    46    26    44    1
    47    26    45    1
    48    27    28    1
    49    27    46    1
    50    27    47    1
@<TRIPOS>SUBSTRUCTURE
     1 ZINC000439870054        1 TEMP              0 ****  ****    0 ROOT


##########                                Name:    ZINC000552360217
##########                DOCK_Rotatable_Bonds:                  13
##########                         Heavy_Atoms:                  27
##########                    Molecular_Weight:             401.484
##########                DOCK_Rotatable_Bonds:                  13
##########                       Formal_Charge:          -0.0100002
##########                     HBond_Acceptors:                  10
##########                        HBond_Donors:                   3
##########                         Heavy_Atoms:                  27
##########                          Grid_Score:          -37.249123
##########                     Grid_vdw_energy:          -35.280926
##########                      Grid_es_energy:           -1.968195
##########           Internal_energy_repulsive:           20.599735

@<TRIPOS>MOLECULE
ZINC000552360217
 54 54 1 0 0
SMALL
USER_CHARGES


@<TRIPOS>ATOM
      1 C1         -6.5911    0.3006   51.8930 C.3     1  ZINC000552360217    0.0800
      2 N2         -6.9478    1.6854   52.2115 N.am    1  ZINC000552360217   -1.0000
      3 C3         -7.6501    1.9923   53.4600 C.3     1  ZINC000552360217    0.0900
      4 S4         -6.5570    2.9038   51.1602 S.o2    1  ZINC000552360217    2.7000
      5 O5         -7.0863    2.5282   49.8961 O.2     1  ZINC000552360217   -0.9500
      6 O6         -6.8931    4.1204   51.8132 O.2     1  ZINC000552360217   -0.9500
      7 C7         -4.8037    2.9003   50.9865 C.ar    1  ZINC000552360217   -0.6900
      8 C8         -4.0004    3.1310   52.0889 C.ar    1  ZINC000552360217    0.0100
      9 C9         -2.6224    3.1295   51.9611 C.ar    1  ZINC000552360217   -0.1400
     10 C10        -2.0410    2.8977   50.7319 C.ar    1  ZINC000552360217   -0.0300
     11 C11        -2.8458    2.6643   49.6155 C.ar    1  ZINC000552360217   -0.1600
     12 C12        -2.2294    2.4147   48.2951 C.2     1  ZINC000552360217    0.5600
     13 O13        -2.7530    1.6424   47.5160 O.2     1  ZINC000552360217   -0.5300
     14 N14        -1.0869    3.0435   47.9550 N.am    1  ZINC000552360217   -0.7100
     15 C15        -0.4770    2.7976   46.6459 C.3     1  ZINC000552360217    0.1000
     16 C16         0.3393    1.5321   46.7017 C.2     1  ZINC000552360217    0.5100
     17 O17        -0.1970    0.4568   46.5372 O.2     1  ZINC000552360217   -0.5400
     18 N18         1.6653    1.5951   46.9347 N.am    1  ZINC000552360217   -0.7200
     19 C19         2.4591    0.3649   46.9873 C.3     1  ZINC000552360217    0.1400
     20 C20         3.8893    0.6989   47.4161 C.3     1  ZINC000552360217    0.1000
     21 C21         4.7987   -0.4990   47.1350 C.3     1  ZINC000552360217   -0.1800
     22 C22         4.3873    1.9130   46.6296 C.3     1  ZINC000552360217   -0.1800
     23 O23         3.9105    0.9953   48.8139 O.3     1  ZINC000552360217   -0.3700
     24 C24         3.5579   -0.1101   49.6480 C.3     1  ZINC000552360217    0.0600
     25 C25         4.7958   -0.5915   50.4073 C.3     1  ZINC000552360217    0.0800
     26 O26         4.4878   -1.8021   51.1015 O.3     1  ZINC000552360217   -0.5700
     27 C27        -4.2347    2.6620   49.7522 C.ar    1  ZINC000552360217    0.0400
     28 H28        -7.4044   -0.1654   51.3368 H       1  ZINC000552360217    0.0600
     29 H29        -5.6841    0.2888   51.2885 H       1  ZINC000552360217    0.0900
     30 H30        -6.4193   -0.2520   52.8167 H       1  ZINC000552360217    0.0800
     31 H31        -7.8199    1.0710   54.0173 H       1  ZINC000552360217    0.0800
     32 H32        -7.0456    2.6732   54.0591 H       1  ZINC000552360217    0.0700
     33 H33        -8.6076    2.4609   53.2325 H       1  ZINC000552360217    0.0600
     34 H34        -4.4506    3.3133   53.0535 H       1  ZINC000552360217    0.1500
     35 H35        -2.0010    3.3106   52.8256 H       1  ZINC000552360217    0.1400
     36 H36        -0.9655    2.8972   50.6334 H       1  ZINC000552360217    0.1400
     37 H37        -0.6683    3.6590   48.5771 H       1  ZINC000552360217    0.4100
     38 H38        -1.2596    2.6923   45.8945 H       1  ZINC000552360217    0.1000
     39 H39         0.1689    3.6353   46.3828 H       1  ZINC000552360217    0.1000
     40 H40         2.0940    2.4551   47.0675 H       1  ZINC000552360217    0.4100
     41 H41         2.0153   -0.3233   47.7067 H       1  ZINC000552360217    0.0800
     42 H42         2.4745   -0.1000   46.0015 H       1  ZINC000552360217    0.0900
     43 H43         4.7825   -0.7250   46.0688 H       1  ZINC000552360217    0.0700
     44 H44         5.8176   -0.2611   47.4405 H       1  ZINC000552360217    0.0700
     45 H45         4.4440   -1.3640   47.6953 H       1  ZINC000552360217    0.0700
     46 H46         3.7393    2.7664   46.8300 H       1  ZINC000552360217    0.0600
     47 H47         5.4062    2.1509   46.9352 H       1  ZINC000552360217    0.0700
     48 H48         4.3710    1.6869   45.5635 H       1  ZINC000552360217    0.0700
     49 H49         2.7932    0.2012   50.3598 H       1  ZINC000552360217    0.0600
     50 H50         3.1714   -0.9217   49.0314 H       1  ZINC000552360217    0.0700
     51 H51         5.6067   -0.7734   49.7020 H       1  ZINC000552360217    0.0600
     52 H52         5.1016    0.1706   51.1240 H       1  ZINC000552360217    0.0500
     53 H53         3.7805   -1.7117   51.7548 H       1  ZINC000552360217    0.3800
     54 H54        -4.8629    2.4820   48.8924 H       1  ZINC000552360217    0.1500
@<TRIPOS>BOND
     1     1     2    1
     2     1    28    1
     3     1    29    1
     4     1    30    1
     5     2     3    1
     6     2     4   am
     7     3    31    1
     8     3    32    1
     9     3    33    1
    10     4     5    2
    11     4     6    2
    12     4     7    1
    13     7    27   ar
    14     7     8   ar
    15     8     9   ar
    16     8    34    1
    17     9    10   ar
    18     9    35    1
    19    10    11   ar
    20    10    36    1
    21    11    12    1
    22    11    27   ar
    23    12    13    2
    24    12    14   am
    25    14    15    1
    26    14    37    1
    27    15    16    1
    28    15    38    1
    29    15    39    1
    30    16    17    2
    31    16    18   am
    32    18    19    1
    33    18    40    1
    34    19    20    1
    35    19    41    1
    36    19    42    1
    37    20    21    1
    38    20    22    1
    39    20    23    1
    40    21    43    1
    41    21    44    1
    42    21    45    1
    43    22    46    1
    44    22    47    1
    45    22    48    1
    46    23    24    1
    47    24    25    1
    48    24    49    1
    49    24    50    1
    50    25    26    1
    51    25    51    1
    52    25    52    1
    53    26    53    1
    54    27    54    1
@<TRIPOS>SUBSTRUCTURE
     1 ZINC000552360217        1 TEMP              0 ****  ****    0 ROOT


##########                                Name:    ZINC001591898574
##########                DOCK_Rotatable_Bonds:                  10
##########                         Heavy_Atoms:                  26
##########                    Molecular_Weight:             383.434
##########                DOCK_Rotatable_Bonds:                  10
##########                       Formal_Charge:         5.96046e-08
##########                     HBond_Acceptors:                  13
##########                        HBond_Donors:                   3
##########                         Heavy_Atoms:                  26
##########                          Grid_Score:          -37.205116
##########                     Grid_vdw_energy:          -36.546165
##########                      Grid_es_energy:           -0.658951
##########           Internal_energy_repulsive:            8.342074

@<TRIPOS>MOLECULE
ZINC001591898574
 47 48 1 0 0
SMALL
USER_CHARGES


@<TRIPOS>ATOM
      1 C1          4.2290    1.7255   44.8145 C.3     1  ZINC001591898574   -0.1100
      2 C2          3.2469    1.2953   45.8735 C.ar    1  ZINC001591898574    0.2300
      3 C3          3.6375    0.4283   46.8786 C.ar    1  ZINC001591898574   -0.2400
      4 C4          2.6947    0.0560   47.8400 C.ar    1  ZINC001591898574    0.3000
      5 C5          3.0646   -0.8710   48.9382 C.2     1  ZINC001591898574    0.2100
      6 N6          2.2440   -1.6265   49.6409 N.2     1  ZINC001591898574   -0.2500
      7 N7          2.9487   -2.2849   50.4957 N.pl3   1  ZINC001591898574   -0.2200
      8 N8          4.1894   -1.9708   50.3571 N.2     1  ZINC001591898574   -0.0400
      9 N9          4.2989   -1.1073   49.4051 N.2     1  ZINC001591898574   -0.2500
     10 N10         1.4603    0.5455   47.7562 N.ar    1  ZINC001591898574   -0.5500
     11 C11         1.1281    1.3729   46.7776 C.ar    1  ZINC001591898574    0.5800
     12 N12        -0.1648    1.8640   46.7195 N.pl3   1  ZINC001591898574   -0.7000
     13 C13        -0.8003    2.3984   47.9265 C.3     1  ZINC001591898574    0.1400
     14 C14        -2.2811    2.0134   47.9362 C.3     1  ZINC001591898574   -0.1500
     15 C15        -2.9308    2.5182   49.2262 C.3     1  ZINC001591898574    0.1200
     16 N16        -4.3537    2.1696   49.2251 N.am    1  ZINC001591898574   -0.7300
     17 C17        -4.9779    1.8819   50.3845 C.2     1  ZINC001591898574    0.4900
     18 O18        -4.3619    1.9132   51.4289 O.2     1  ZINC001591898574   -0.5300
     19 C19        -6.4411    1.5216   50.3832 C.3     1  ZINC001591898574    0.1000
     20 N20        -7.0707    2.0315   51.6039 N.am    1  ZINC001591898574   -0.9800
     21 C21        -7.2066    1.1630   52.7758 C.3     1  ZINC001591898574    0.1000
     22 S22        -7.6287    3.5897   51.6589 S.o2    1  ZINC001591898574    2.6100
     23 C23        -8.8730    3.6716   50.3416 C.3     1  ZINC001591898574   -0.6600
     24 O24        -8.2453    3.6963   52.9347 O.2     1  ZINC001591898574   -0.9500
     25 O25        -6.4957    4.3796   51.3245 O.2     1  ZINC001591898574   -0.9600
     26 N26         2.0028    1.7470   45.8553 N.ar    1  ZINC001591898574   -0.5600
     27 H27         4.7466    2.6266   45.1436 H       1  ZINC001591898574    0.0900
     28 H28         4.9551    0.9299   44.6475 H       1  ZINC001591898574    0.0900
     29 H29         3.6956    1.9314   43.8865 H       1  ZINC001591898574    0.0900
     30 H30         4.6475    0.0480   46.9187 H       1  ZINC001591898574    0.1600
     31 H31         2.5991   -2.9180   51.1422 H       1  ZINC001591898574    0.4800
     32 H32        -0.6499    1.8542   45.8796 H       1  ZINC001591898574    0.4200
     33 H33        -0.3114    1.9842   48.8082 H       1  ZINC001591898574    0.0700
     34 H34        -0.7071    3.4843   47.9357 H       1  ZINC001591898574    0.0700
     35 H35        -2.7794    2.4641   47.0779 H       1  ZINC001591898574    0.0800
     36 H36        -2.3748    0.9288   47.8826 H       1  ZINC001591898574    0.0800
     37 H37        -2.4437    2.0544   50.0840 H       1  ZINC001591898574    0.0700
     38 H38        -2.8220    3.6010   49.2882 H       1  ZINC001591898574    0.0700
     39 H39        -4.8466    2.1457   48.3901 H       1  ZINC001591898574    0.4000
     40 H40        -6.9239    1.9656   49.5128 H       1  ZINC001591898574    0.1200
     41 H41        -6.5484    0.4376   50.3447 H       1  ZINC001591898574    0.1300
     42 H42        -6.3237    1.2637   53.4071 H       1  ZINC001591898574    0.0600
     43 H43        -8.0924    1.4518   53.3413 H       1  ZINC001591898574    0.0700
     44 H44        -7.3046    0.1271   52.4510 H       1  ZINC001591898574    0.0700
     45 H45        -9.6637    2.9490   50.5432 H       1  ZINC001591898574    0.1300
     46 H46        -9.2982    4.6747   50.3053 H       1  ZINC001591898574    0.1200
     47 H47        -8.4050    3.4406   49.3847 H       1  ZINC001591898574    0.1300
@<TRIPOS>BOND
     1     1     2    1
     2     1    27    1
     3     1    28    1
     4     1    29    1
     5     2    26   ar
     6     2     3   ar
     7     3     4   ar
     8     3    30    1
     9     4     5    1
    10     4    10   ar
    11     5     9    1
    12     5     6    2
    13     6     7    1
    14     7     8    1
    15     7    31    1
    16     8     9    2
    17    10    11   ar
    18    11    12    1
    19    11    26   ar
    20    12    13    1
    21    12    32    1
    22    13    14    1
    23    13    33    1
    24    13    34    1
    25    14    15    1
    26    14    35    1
    27    14    36    1
    28    15    16    1
    29    15    37    1
    30    15    38    1
    31    16    17   am
    32    16    39    1
    33    17    18    2
    34    17    19    1
    35    19    20    1
    36    19    40    1
    37    19    41    1
    38    20    21    1
    39    20    22   am
    40    21    42    1
    41    21    43    1
    42    21    44    1
    43    22    23    1
    44    22    24    2
    45    22    25    2
    46    23    45    1
    47    23    46    1
    48    23    47    1
@<TRIPOS>SUBSTRUCTURE
     1 ZINC001591898574        1 TEMP              0 ****  ****    0 ROOT


##########                                Name:    ZINC000004598904
##########                DOCK_Rotatable_Bonds:                  13
##########                         Heavy_Atoms:                  30
##########                    Molecular_Weight:             412.442
##########                DOCK_Rotatable_Bonds:                  13
##########                       Formal_Charge:          -0.0300005
##########                     HBond_Acceptors:                   8
##########                        HBond_Donors:                   2
##########                         Heavy_Atoms:                  30
##########                          Grid_Score:          -36.821335
##########                     Grid_vdw_energy:          -31.939680
##########                      Grid_es_energy:           -4.881653
##########           Internal_energy_repulsive:           10.204405

@<TRIPOS>MOLECULE
ZINC000004598904
 54 55 1 0 0
SMALL
USER_CHARGES


@<TRIPOS>ATOM
      1 C1          0.3021   -0.8331   61.4067 C.3     1  ZINC000004598904   -0.1500
      2 C2          0.1809    0.3906   60.4962 C.3     1  ZINC000004598904    0.0600
      3 O3          1.5064    0.8924   60.1811 O.3     1  ZINC000004598904   -0.3500
      4 C4          1.6184    1.6868   59.0984 C.2     1  ZINC000004598904    0.5100
      5 O5          2.6972    1.8277   58.5572 O.2     1  ZINC000004598904   -0.5100
      6 C6          0.4318    2.3854   58.5706 C.ar    1  ZINC000004598904   -0.1500
      7 C7         -0.2518    3.3069   59.3694 C.ar    1  ZINC000004598904   -0.0400
      8 C8         -1.3590    3.9570   58.8733 C.ar    1  ZINC000004598904   -0.1400
      9 C9         -1.7982    3.6980   57.5786 C.ar    1  ZINC000004598904    0.1800
     10 N10        -2.9197    4.3587   57.0795 N.am    1  ZINC000004598904   -0.6700
     11 C11        -2.7822    5.2737   56.0994 C.2     1  ZINC000004598904    0.5200
     12 O12        -1.6828    5.5221   55.6517 O.2     1  ZINC000004598904   -0.5100
     13 C13        -3.9946    5.9878   55.5599 C.3     1  ZINC000004598904   -0.1300
     14 C14        -4.9183    4.9785   54.8752 C.3     1  ZINC000004598904   -0.1300
     15 C15        -4.4031    4.6853   53.4896 C.2     1  ZINC000004598904    0.5200
     16 O16        -4.4391    5.5450   52.6349 O.2     1  ZINC000004598904   -0.5100
     17 N17        -3.9024    3.4680   53.2003 N.am    1  ZINC000004598904   -0.6700
     18 C18        -3.4258    3.1969   51.9185 C.ar    1  ZINC000004598904    0.1800
     19 C19        -2.0554    3.1744   51.6779 C.ar    1  ZINC000004598904   -0.1400
     20 C20        -1.5813    2.9071   50.4136 C.ar    1  ZINC000004598904   -0.0300
     21 C21        -2.4784    2.6575   49.3708 C.ar    1  ZINC000004598904   -0.1500
     22 C22        -1.9743    2.3703   48.0151 C.2     1  ZINC000004598904    0.5100
     23 O23        -2.7280    1.9388   47.1654 O.2     1  ZINC000004598904   -0.5100
     24 O24        -0.6777    2.5864   47.7185 O.3     1  ZINC000004598904   -0.3600
     25 C25        -0.2444    2.2518   46.3738 C.3     1  ZINC000004598904    0.0600
     26 C26         1.2803    2.1283   46.3451 C.3     1  ZINC000004598904   -0.1500
     27 C27        -3.8546    2.6804   49.6163 C.ar    1  ZINC000004598904   -0.0400
     28 C28        -4.3215    2.9437   50.8841 C.ar    1  ZINC000004598904   -0.1600
     29 C29        -1.1203    2.7815   56.7808 C.ar    1  ZINC000004598904   -0.1600
     30 C30        -0.0089    2.1319   57.2682 C.ar    1  ZINC000004598904   -0.0300
     31 H31         0.8125   -0.5516   62.3277 H       1  ZINC000004598904    0.0700
     32 H32        -0.6931   -1.2099   61.6433 H       1  ZINC000004598904    0.0800
     33 H33         0.8730   -1.6096   60.8976 H       1  ZINC000004598904    0.0700
     34 H34        -0.3295    0.1090   59.5751 H       1  ZINC000004598904    0.0700
     35 H35        -0.3900    1.1671   61.0053 H       1  ZINC000004598904    0.0700
     36 H36         0.0883    3.5081   60.3745 H       1  ZINC000004598904    0.1400
     37 H37        -1.8878    4.6687   59.4900 H       1  ZINC000004598904    0.1400
     38 H38        -3.7990    4.1600   57.4376 H       1  ZINC000004598904    0.4200
     39 H39        -4.5272    6.4698   56.3797 H       1  ZINC000004598904    0.1100
     40 H40        -3.6809    6.7414   54.8375 H       1  ZINC000004598904    0.1100
     41 H41        -4.9433    4.0565   55.4561 H       1  ZINC000004598904    0.1100
     42 H42        -5.9241    5.3932   54.8086 H       1  ZINC000004598904    0.1100
     43 H43        -3.8736    2.7804   53.8840 H       1  ZINC000004598904    0.4200
     44 H44        -1.3630    3.3673   52.4840 H       1  ZINC000004598904    0.1400
     45 H45        -0.5176    2.8905   50.2274 H       1  ZINC000004598904    0.1400
     46 H46        -0.6914    1.3042   46.0732 H       1  ZINC000004598904    0.0700
     47 H47        -0.5584    3.0361   45.6851 H       1  ZINC000004598904    0.0700
     48 H48         1.6056    1.8771   45.3355 H       1  ZINC000004598904    0.0800
     49 H49         1.7273    3.0760   46.6456 H       1  ZINC000004598904    0.0700
     50 H50         1.5943    1.3439   47.0337 H       1  ZINC000004598904    0.0700
     51 H51        -4.5504    2.4884   48.8131 H       1  ZINC000004598904    0.1400
     52 H52        -5.3844    2.9612   51.0748 H       1  ZINC000004598904    0.1400
     53 H53        -1.4638    2.5829   55.7764 H       1  ZINC000004598904    0.1400
     54 H54         0.5168    1.4207   56.6484 H       1  ZINC000004598904    0.1400
@<TRIPOS>BOND
     1     1     2    1
     2     1    31    1
     3     1    32    1
     4     1    33    1
     5     2     3    1
     6     2    34    1
     7     2    35    1
     8     3     4    1
     9     4     5    2
    10     4     6    1
    11     6    30   ar
    12     6     7   ar
    13     7     8   ar
    14     7    36    1
    15     8     9   ar
    16     8    37    1
    17     9    10    1
    18     9    29   ar
    19    10    11   am
    20    10    38    1
    21    11    12    2
    22    11    13    1
    23    13    14    1
    24    13    39    1
    25    13    40    1
    26    14    15    1
    27    14    41    1
    28    14    42    1
    29    15    16    2
    30    15    17   am
    31    17    18    1
    32    17    43    1
    33    18    28   ar
    34    18    19   ar
    35    19    20   ar
    36    19    44    1
    37    20    21   ar
    38    20    45    1
    39    21    22    1
    40    21    27   ar
    41    22    23    2
    42    22    24    1
    43    24    25    1
    44    25    26    1
    45    25    46    1
    46    25    47    1
    47    26    48    1
    48    26    49    1
    49    26    50    1
    50    27    28   ar
    51    27    51    1
    52    28    52    1
    53    29    30   ar
    54    29    53    1
    55    30    54    1
@<TRIPOS>SUBSTRUCTURE
     1 ZINC000004598904        1 TEMP              0 ****  ****    0 ROOT


##########                                Name:    ZINC000442010511
##########                DOCK_Rotatable_Bonds:                  11
##########                         Heavy_Atoms:                  31
##########                    Molecular_Weight:             422.481
##########                DOCK_Rotatable_Bonds:                  11
##########                       Formal_Charge:          -0.0200005
##########                     HBond_Acceptors:                   7
##########                        HBond_Donors:                   2
##########                         Heavy_Atoms:                  31
##########                          Grid_Score:          -36.681629
##########                     Grid_vdw_energy:          -31.806971
##########                      Grid_es_energy:           -4.874660
##########           Internal_energy_repulsive:           10.782685

@<TRIPOS>MOLECULE
ZINC000442010511
 57 59 1 0 0
SMALL
USER_CHARGES


@<TRIPOS>ATOM
      1 C1         -2.6084    4.5026   56.9641 C.3     1  ZINC000442010511   -0.1500
      2 C2         -2.3535    3.0764   56.4723 C.3     1  ZINC000442010511   -0.0500
      3 C3         -0.8830    2.7640   56.5774 C.2     1  ZINC000442010511    0.0000
      4 C4         -0.2728    2.1976   57.6338 C.2     1  ZINC000442010511   -0.2100
      5 C5          1.0983    2.0902   57.3057 C.2     1  ZINC000442010511   -0.1900
      6 C6          1.2438    2.5974   56.0685 C.2     1  ZINC000442010511   -0.0300
      7 C7          2.5375    2.6924   55.3015 C.3     1  ZINC000442010511    0.2400
      8 H8          2.8958    3.7217   55.3196 H       1  ZINC000442010511    0.1400
      9 C9          3.5809    1.7777   55.9459 C.3     1  ZINC000442010511    0.0500
     10 O10         4.0808    2.3898   57.1365 O.3     1  ZINC000442010511   -0.3800
     11 C11         5.0678    1.6138   57.8188 C.3     1  ZINC000442010511    0.0300
     12 N12         2.3145    2.2774   53.9142 N.am    1  ZINC000442010511   -0.6900
     13 C13         3.2031    2.6148   52.9587 C.2     1  ZINC000442010511    0.5200
     14 O14         4.1873    3.2635   53.2472 O.2     1  ZINC000442010511   -0.5100
     15 C15         2.9767    2.1902   51.5450 C.2     1  ZINC000442010511    0.5100
     16 O16         3.8677    2.3009   50.7281 O.2     1  ZINC000442010511   -0.5000
     17 N17         1.7833    1.6843   51.1762 N.am    1  ZINC000442010511   -0.6300
     18 C18         1.5712    1.2867   49.8522 C.ar    1  ZINC000442010511    0.1200
     19 C19         2.1702    0.1326   49.3679 C.ar    1  ZINC000442010511   -0.1000
     20 C20         1.9591   -0.2581   48.0591 C.ar    1  ZINC000442010511   -0.1300
     21 C21         1.1519    0.4983   47.2296 C.ar    1  ZINC000442010511   -0.0900
     22 C22         0.5517    1.6499   47.7043 C.ar    1  ZINC000442010511   -0.1700
     23 C23         0.7527    2.0458   49.0167 C.ar    1  ZINC000442010511    0.1000
     24 O24         0.1635    3.1777   49.4849 O.3     1  ZINC000442010511   -0.2600
     25 C25        -1.0628    3.0677   50.0598 C.ar    1  ZINC000442010511    0.0800
     26 C26        -2.1732    2.7804   49.2788 C.ar    1  ZINC000442010511   -0.1300
     27 C27        -3.4187    2.6687   49.8656 C.ar    1  ZINC000442010511   -0.1100
     28 C28        -3.5595    2.8434   51.2301 C.ar    1  ZINC000442010511   -0.0800
     29 C29        -4.9196    2.7215   51.8675 C.3     1  ZINC000442010511   -0.1200
     30 C30        -2.4547    3.1293   52.0107 C.ar    1  ZINC000442010511   -0.1100
     31 C31        -1.2060    3.2369   51.4295 C.ar    1  ZINC000442010511   -0.1100
     32 O32         0.0394    2.9988   55.6300 O.3     1  ZINC000442010511   -0.1600
     33 H33        -2.2917    4.5906   58.0033 H       1  ZINC000442010511    0.0600
     34 H34        -2.0431    5.2047   56.3513 H       1  ZINC000442010511    0.0600
     35 H35        -3.6720    4.7285   56.8881 H       1  ZINC000442010511    0.0700
     36 H36        -2.9189    2.3743   57.0851 H       1  ZINC000442010511    0.0900
     37 H37        -2.6703    2.9884   55.4331 H       1  ZINC000442010511    0.0800
     38 H38        -0.7402    1.8853   58.5560 H       1  ZINC000442010511    0.1500
     39 H39         1.8791    1.6799   57.9291 H       1  ZINC000442010511    0.1500
     40 H40         3.1215    0.8211   56.1945 H       1  ZINC000442010511    0.0700
     41 H41         4.4026    1.6157   55.2481 H       1  ZINC000442010511    0.0700
     42 H42         5.3963    2.1469   58.7110 H       1  ZINC000442010511    0.0900
     43 H43         4.6401    0.6534   58.1061 H       1  ZINC000442010511    0.0400
     44 H44         5.9202    1.4494   57.1595 H       1  ZINC000442010511    0.0400
     45 H45         1.5271    1.7600   53.6834 H       1  ZINC000442010511    0.4200
     46 H46         1.0713    1.5960   51.8291 H       1  ZINC000442010511    0.4300
     47 H47         2.8014   -0.4601   50.0134 H       1  ZINC000442010511    0.1600
     48 H48         2.4261   -1.1564   47.6832 H       1  ZINC000442010511    0.1300
     49 H49         0.9900    0.1888   46.2077 H       1  ZINC000442010511    0.1300
     50 H50        -0.0775    2.2385   47.0533 H       1  ZINC000442010511    0.1300
     51 H51        -2.0638    2.6445   48.2129 H       1  ZINC000442010511    0.1300
     52 H52        -4.2833    2.4450   49.2583 H       1  ZINC000442010511    0.1300
     53 H53        -5.0895    1.6871   52.1663 H       1  ZINC000442010511    0.0700
     54 H54        -4.9686    3.3659   52.7453 H       1  ZINC000442010511    0.0700
     55 H55        -5.6846    3.0233   51.1521 H       1  ZINC000442010511    0.0700
     56 H56        -2.5674    3.2654   53.0761 H       1  ZINC000442010511    0.1300
     57 H57        -0.3433    3.4601   52.0397 H       1  ZINC000442010511    0.1300
@<TRIPOS>BOND
     1     1     2    1
     2     1    33    1
     3     1    34    1
     4     1    35    1
     5     2     3    1
     6     2    36    1
     7     2    37    1
     8     3    32    1
     9     3     4    2
    10     4     5    1
    11     4    38    1
    12     5     6    2
    13     5    39    1
    14     6     7    1
    15     6    32    1
    16     7     8    1
    17     7     9    1
    18     7    12    1
    19     9    10    1
    20     9    40    1
    21     9    41    1
    22    10    11    1
    23    11    42    1
    24    11    43    1
    25    11    44    1
    26    12    13   am
    27    12    45    1
    28    13    14    2
    29    13    15    1
    30    15    16    2
    31    15    17   am
    32    17    18    1
    33    17    46    1
    34    18    23   ar
    35    18    19   ar
    36    19    20   ar
    37    19    47    1
    38    20    21   ar
    39    20    48    1
    40    21    22   ar
    41    21    49    1
    42    22    23   ar
    43    22    50    1
    44    23    24    1
    45    24    25    1
    46    25    31   ar
    47    25    26   ar
    48    26    27   ar
    49    26    51    1
    50    27    28   ar
    51    27    52    1
    52    28    29    1
    53    28    30   ar
    54    29    53    1
    55    29    54    1
    56    29    55    1
    57    30    31   ar
    58    30    56    1
    59    31    57    1
@<TRIPOS>SUBSTRUCTURE
     1 ZINC000442010511        1 TEMP              0 ****  ****    0 ROOT


##########                                Name:    ZINC000474251633
##########                DOCK_Rotatable_Bonds:                   8
##########                         Heavy_Atoms:                  28
##########                    Molecular_Weight:             416.931
##########                DOCK_Rotatable_Bonds:                   8
##########                       Formal_Charge:          0.00999953
##########                     HBond_Acceptors:                   8
##########                        HBond_Donors:                   2
##########                         Heavy_Atoms:                  28
##########                          Grid_Score:          -36.202827
##########                     Grid_vdw_energy:          -36.058887
##########                      Grid_es_energy:           -0.143939
##########           Internal_energy_repulsive:            7.842017

@<TRIPOS>MOLECULE
ZINC000474251633
 49 52 1 0 0
SMALL
USER_CHARGES


@<TRIPOS>ATOM
      1 O1         -3.3069    1.9113   47.7787 O.2     1  ZINC000474251633   -0.5300
      2 C2         -2.4410    2.4038   48.4706 C.2     1  ZINC000474251633    0.5100
      3 C3         -2.7872    2.9633   49.8263 C.3     1  ZINC000474251633    0.1000
      4 N4         -4.1070    2.4751   50.2337 N.am    1  ZINC000474251633   -0.7100
      5 C5         -4.4545    2.4785   51.5359 C.2     1  ZINC000474251633    0.5900
      6 O6         -3.6726    2.8885   52.3730 O.2     1  ZINC000474251633   -0.5000
      7 C7         -5.7766    1.9874   51.9442 C.2     1  ZINC000474251633   -0.2300
      8 C8         -6.6141    2.6426   52.7568 C.2     1  ZINC000474251633    0.0400
      9 Cl9        -6.2218    4.1902   53.4386 Cl      1  ZINC000474251633   -0.0100
     10 C10        -7.8327    1.9941   53.0210 C.ar    1  ZINC000474251633   -0.0900
     11 C11        -8.9103    2.4251   53.8303 C.ar    1  ZINC000474251633   -0.0600
     12 C12       -10.0215    1.6538   53.9680 C.ar    1  ZINC000474251633   -0.1200
     13 C13       -10.1202    0.4300   53.3179 C.ar    1  ZINC000474251633   -0.0800
     14 C14        -9.0900   -0.0162   52.5252 C.ar    1  ZINC000474251633   -0.0900
     15 C15        -7.9370    0.7596   52.3677 C.ar    1  ZINC000474251633   -0.1200
     16 S16        -6.4787    0.4644   51.4278 S.3     1  ZINC000474251633    0.1700
     17 N17        -1.1682    2.4456   48.0293 N.am    1  ZINC000474251633   -0.7200
     18 C18        -0.8317    1.9017   46.7114 C.3     1  ZINC000474251633    0.2100
     19 C19         0.6090    1.4594   46.7034 C.2     1  ZINC000474251633    0.0500
     20 N20         1.1606    0.6268   47.5485 N.2     1  ZINC000474251633   -0.2700
     21 N21         2.5093    0.4787   47.1999 N.pl3   1  ZINC000474251633   -0.3600
     22 C22         3.4898   -0.3649   47.8880 C.3     1  ZINC000474251633    0.1500
     23 C23         4.1622    0.4284   49.0274 C.3     1  ZINC000474251633   -0.1400
     24 C24         3.3494    0.0444   50.2887 C.3     1  ZINC000474251633   -0.1300
     25 C25         3.0528   -1.4585   50.0598 C.3     1  ZINC000474251633   -0.1200
     26 C26         2.7844   -1.5646   48.5445 C.3     1  ZINC000474251633   -0.1400
     27 C27         2.7458    1.2503   46.1184 C.2     1  ZINC000474251633    0.0600
     28 C28         1.5858    1.8634   45.7875 C.2     1  ZINC000474251633   -0.2600
     29 H29        -2.0410    2.6425   50.5533 H       1  ZINC000474251633    0.1100
     30 H30        -2.8020    4.0521   49.7771 H       1  ZINC000474251633    0.1100
     31 H31        -4.7309    2.1493   49.5661 H       1  ZINC000474251633    0.4100
     32 H32        -8.8496    3.3738   54.3428 H       1  ZINC000474251633    0.1300
     33 H33       -10.8358    1.9959   54.5895 H       1  ZINC000474251633    0.1400
     34 H34       -11.0086   -0.1725   53.4362 H       1  ZINC000474251633    0.1400
     35 H35        -9.1711   -0.9686   52.0224 H       1  ZINC000474251633    0.1400
     36 H36        -0.4751    2.8360   48.5844 H       1  ZINC000474251633    0.4100
     37 H37        -1.4748    1.0486   46.4954 H       1  ZINC000474251633    0.0900
     38 H38        -0.9800    2.6699   45.9525 H       1  ZINC000474251633    0.0900
     39 H39         4.2421   -0.7150   47.1812 H       1  ZINC000474251633    0.1100
     40 H40         5.2040    0.1274   49.1386 H       1  ZINC000474251633    0.0900
     41 H41         4.0917    1.4998   48.8396 H       1  ZINC000474251633    0.0800
     42 H42         3.9449    0.1877   51.1904 H       1  ZINC000474251633    0.0800
     43 H43         2.4236    0.6173   50.3408 H       1  ZINC000474251633    0.0700
     44 H44         3.9153   -2.0642   50.3377 H       1  ZINC000474251633    0.0700
     45 H45         2.1727   -1.7641   50.6255 H       1  ZINC000474251633    0.0700
     46 H46         1.7126   -1.5191   48.3510 H       1  ZINC000474251633    0.0700
     47 H47         3.1949   -2.4969   48.1568 H       1  ZINC000474251633    0.0800
     48 H48         3.6908    1.3562   45.6061 H       1  ZINC000474251633    0.1700
     49 H49         1.4413    2.5485   44.9652 H       1  ZINC000474251633    0.1500
@<TRIPOS>BOND
     1     1     2    2
     2     2     3    1
     3     2    17   am
     4     3     4    1
     5     3    29    1
     6     3    30    1
     7     4     5   am
     8     4    31    1
     9     5     6    2
    10     5     7    1
    11     7    16    1
    12     7     8    2
    13     8     9    1
    14     8    10    1
    15    10    15   ar
    16    10    11   ar
    17    11    12   ar
    18    11    32    1
    19    12    13   ar
    20    12    33    1
    21    13    14   ar
    22    13    34    1
    23    14    15   ar
    24    14    35    1
    25    15    16    1
    26    17    18    1
    27    17    36    1
    28    18    19    1
    29    18    37    1
    30    18    38    1
    31    19    28    1
    32    19    20    2
    33    20    21    1
    34    21    22    1
    35    21    27    1
    36    22    26    1
    37    22    23    1
    38    22    39    1
    39    23    24    1
    40    23    40    1
    41    23    41    1
    42    24    25    1
    43    24    42    1
    44    24    43    1
    45    25    26    1
    46    25    44    1
    47    25    45    1
    48    26    46    1
    49    26    47    1
    50    27    28    2
    51    27    48    1
    52    28    49    1
@<TRIPOS>SUBSTRUCTURE
     1 ZINC000474251633        1 TEMP              0 ****  ****    0 ROOT


##########                                Name:    ZINC000008416770
##########                DOCK_Rotatable_Bonds:                  13
##########                         Heavy_Atoms:                  30
##########                    Molecular_Weight:             412.442
##########                DOCK_Rotatable_Bonds:                  13
##########                       Formal_Charge:          -0.0199998
##########                     HBond_Acceptors:                   8
##########                        HBond_Donors:                   2
##########                         Heavy_Atoms:                  30
##########                          Grid_Score:          -35.945438
##########                     Grid_vdw_energy:          -35.055634
##########                      Grid_es_energy:           -0.889805
##########           Internal_energy_repulsive:           13.503240

@<TRIPOS>MOLECULE
ZINC000008416770
 54 55 1 0 0
SMALL
USER_CHARGES


@<TRIPOS>ATOM
      1 C1        -14.7761   -3.8569   55.6407 C.3     1  ZINC000008416770   -0.1500
      2 C2        -13.4122   -4.4934   55.3659 C.3     1  ZINC000008416770    0.0600
      3 O3        -12.5575   -3.5336   54.6902 O.3     1  ZINC000008416770   -0.3500
      4 C4        -11.9854   -2.5809   55.4526 C.2     1  ZINC000008416770    0.5100
      5 O5        -12.1552   -2.5824   56.6557 O.2     1  ZINC000008416770   -0.5100
      6 C6        -11.1534   -1.5367   54.8266 C.ar    1  ZINC000008416770   -0.1500
      7 C7        -10.7134   -0.4452   55.5814 C.ar    1  ZINC000008416770   -0.0400
      8 C8         -9.9365    0.5274   54.9939 C.ar    1  ZINC000008416770   -0.1400
      9 C9         -9.5890    0.4252   53.6504 C.ar    1  ZINC000008416770    0.1800
     10 N10        -8.8020    1.4122   53.0587 N.am    1  ZINC000008416770   -0.6700
     11 C11        -7.6233    1.0851   52.4931 C.2     1  ZINC000008416770    0.5200
     12 O12        -7.2472   -0.0679   52.4987 O.2     1  ZINC000008416770   -0.5100
     13 C13        -6.7727    2.1520   51.8535 C.3     1  ZINC000008416770   -0.1300
     14 C14        -5.8748    1.5183   50.7889 C.3     1  ZINC000008416770   -0.1000
     15 C15        -4.7882    2.4894   50.4053 C.2     1  ZINC000008416770    0.4700
     16 O16        -4.7602    3.5912   50.9005 O.2     1  ZINC000008416770   -0.5100
     17 O17        -3.8515    2.1306   49.5134 O.3     1  ZINC000008416770   -0.3300
     18 C18        -2.7957    3.0902   49.2439 C.3     1  ZINC000008416770    0.0500
     19 C19        -1.6641    2.4030   48.5240 C.2     1  ZINC000008416770    0.5100
     20 O20        -1.8974    1.6757   47.5818 O.2     1  ZINC000008416770   -0.4900
     21 N21        -0.3927    2.5967   48.9271 N.am    1  ZINC000008416770   -0.6700
     22 C22         0.6581    1.9587   48.2588 C.ar    1  ZINC000008416770    0.1400
     23 C23         0.9874    2.3329   46.9626 C.ar    1  ZINC000008416770   -0.1400
     24 C24         2.0251    1.7011   46.3056 C.ar    1  ZINC000008416770   -0.1000
     25 C25         2.7356    0.6968   46.9369 C.ar    1  ZINC000008416770   -0.1000
     26 C26         3.8670    0.0094   46.2169 C.3     1  ZINC000008416770   -0.1200
     27 C27         2.4105    0.3223   48.2277 C.ar    1  ZINC000008416770   -0.1000
     28 C28         1.3776    0.9539   48.8922 C.ar    1  ZINC000008416770   -0.1200
     29 C29       -10.0248   -0.6600   52.8962 C.ar    1  ZINC000008416770   -0.1600
     30 C30       -10.7978   -1.6388   53.4783 C.ar    1  ZINC000008416770   -0.0300
     31 H31       -14.6464   -2.9781   56.2724 H       1  ZINC000008416770    0.0700
     32 H32       -15.2359   -3.5617   54.6975 H       1  ZINC000008416770    0.0700
     33 H33       -15.4177   -4.5775   56.1478 H       1  ZINC000008416770    0.0800
     34 H34       -12.9524   -4.7886   56.3090 H       1  ZINC000008416770    0.0700
     35 H35       -13.5419   -5.3721   54.7342 H       1  ZINC000008416770    0.0700
     36 H36       -10.9831   -0.3652   56.6241 H       1  ZINC000008416770    0.1400
     37 H37        -9.5966    1.3709   55.5763 H       1  ZINC000008416770    0.1400
     38 H38        -9.1028    2.3344   53.0542 H       1  ZINC000008416770    0.4200
     39 H39        -7.4157    2.8993   51.3885 H       1  ZINC000008416770    0.1100
     40 H40        -6.1538    2.6278   52.6143 H       1  ZINC000008416770    0.1100
     41 H41        -5.4252    0.6088   51.1873 H       1  ZINC000008416770    0.1200
     42 H42        -6.4708    1.2739   49.9096 H       1  ZINC000008416770    0.1200
     43 H43        -3.1866    3.8952   48.6216 H       1  ZINC000008416770    0.1100
     44 H44        -2.4308    3.5026   50.1845 H       1  ZINC000008416770    0.1100
     45 H45        -0.2061    3.1784   49.6805 H       1  ZINC000008416770    0.4100
     46 H46         0.4324    3.1166   46.4686 H       1  ZINC000008416770    0.1300
     47 H47         2.2817    1.9916   45.2975 H       1  ZINC000008416770    0.1300
     48 H48         4.7983    0.5412   46.4120 H       1  ZINC000008416770    0.0700
     49 H49         3.9535   -1.0174   46.5727 H       1  ZINC000008416770    0.0700
     50 H50         3.6675    0.0069   45.1453 H       1  ZINC000008416770    0.0700
     51 H51         2.9673   -0.4626   48.7181 H       1  ZINC000008416770    0.1300
     52 H52         1.1241    0.6610   49.9004 H       1  ZINC000008416770    0.1300
     53 H53        -9.7529   -0.7362   51.8538 H       1  ZINC000008416770    0.1400
     54 H54       -11.1357   -2.4807   52.8923 H       1  ZINC000008416770    0.1400
@<TRIPOS>BOND
     1     1     2    1
     2     1    31    1
     3     1    32    1
     4     1    33    1
     5     2     3    1
     6     2    34    1
     7     2    35    1
     8     3     4    1
     9     4     5    2
    10     4     6    1
    11     6    30   ar
    12     6     7   ar
    13     7     8   ar
    14     7    36    1
    15     8     9   ar
    16     8    37    1
    17     9    10    1
    18     9    29   ar
    19    10    11   am
    20    10    38    1
    21    11    12    2
    22    11    13    1
    23    13    14    1
    24    13    39    1
    25    13    40    1
    26    14    15    1
    27    14    41    1
    28    14    42    1
    29    15    16    2
    30    15    17    1
    31    17    18    1
    32    18    19    1
    33    18    43    1
    34    18    44    1
    35    19    20    2
    36    19    21   am
    37    21    22    1
    38    21    45    1
    39    22    28   ar
    40    22    23   ar
    41    23    24   ar
    42    23    46    1
    43    24    25   ar
    44    24    47    1
    45    25    26    1
    46    25    27   ar
    47    26    48    1
    48    26    49    1
    49    26    50    1
    50    27    28   ar
    51    27    51    1
    52    28    52    1
    53    29    30   ar
    54    29    53    1
    55    30    54    1
@<TRIPOS>SUBSTRUCTURE
     1 ZINC000008416770        1 TEMP              0 ****  ****    0 ROOT


##########                                Name:    ZINC001083519372
##########                DOCK_Rotatable_Bonds:                   7
##########                         Heavy_Atoms:                  27
##########                    Molecular_Weight:             370.411
##########                DOCK_Rotatable_Bonds:                   7
##########                       Formal_Charge:           0.0399996
##########                     HBond_Acceptors:                   9
##########                        HBond_Donors:                   2
##########                         Heavy_Atoms:                  27
##########                          Grid_Score:          -35.880363
##########                     Grid_vdw_energy:          -30.549427
##########                      Grid_es_energy:           -5.330936
##########           Internal_energy_repulsive:            7.906791

@<TRIPOS>MOLECULE
ZINC001083519372
 49 52 1 0 0
SMALL
USER_CHARGES


@<TRIPOS>ATOM
      1 C1          2.1441   -0.6330   60.4673 C.3     1  ZINC001083519372   -0.1500
      2 C2          1.1378    0.4806   60.1709 C.3     1  ZINC001083519372   -0.0100
      3 C3          0.8261    1.2427   61.4606 C.3     1  ZINC001083519372   -0.1500
      4 C4          1.7224    1.4289   59.1560 C.2     1  ZINC001083519372   -0.0100
      5 C5          1.0359    2.2154   58.3106 C.2     1  ZINC001083519372   -0.0100
      6 C6         -0.4643    2.3104   58.2042 C.3     1  ZINC001083519372    0.1300
      7 N7         -0.8213    3.3615   57.2421 N.3     1  ZINC001083519372   -0.5000
      8 C8         -0.9888    2.7993   55.8775 C.3     1  ZINC001083519372    0.0300
      9 C9         -1.8426    3.8712   55.1548 C.3     1  ZINC001083519372    0.1500
     10 H10        -1.2175    4.6960   54.8123 H       1  ZINC001083519372    0.1200
     11 N11        -2.5770    3.2797   54.0336 N.am    1  ZINC001083519372   -0.6900
     12 C12        -2.3429    3.7038   52.7760 C.2     1  ZINC001083519372    0.5600
     13 O13        -1.5212    4.5764   52.5716 O.2     1  ZINC001083519372   -0.5100
     14 C14        -3.0835    3.1094   51.6473 C.2     1  ZINC001083519372    0.1400
     15 C15        -4.3785    2.6944   51.8045 C.2     1  ZINC001083519372   -0.1500
     16 C16        -5.0552    2.1336   50.7131 C.2     1  ZINC001083519372    0.1800
     17 N17        -4.4566    2.0069   49.5532 N.2     1  ZINC001083519372   -0.4400
     18 C18        -3.1924    2.4061   49.3795 C.2     1  ZINC001083519372    0.2500
     19 C19        -2.3425    2.3854   48.2789 C.2     1  ZINC001083519372   -0.2500
     20 C20        -1.1319    2.9313   48.6724 C.2     1  ZINC001083519372    0.1000
     21 N21        -1.2083    3.2758   49.9394 N.2     1  ZINC001083519372   -0.3100
     22 N22        -2.4871    2.9670   50.4152 N.pl3   1  ZINC001083519372   -0.3100
     23 C23        -2.8135    4.3436   56.2613 C.3     1  ZINC001083519372    0.0900
     24 H24        -2.9632    5.4215   56.1984 H       1  ZINC001083519372    0.0800
     25 O25        -4.0645    3.6625   56.1474 O.3     1  ZINC001083519372   -0.5600
     26 C26        -2.1215    3.9765   57.5870 C.3     1  ZINC001083519372    0.0100
     27 N27         1.9288    2.9026   57.5765 N.2     1  ZINC001083519372   -0.4800
     28 C28         3.1287    2.5589   57.9488 C.2     1  ZINC001083519372    0.1700
     29 O29         3.0320    1.6516   58.9298 O.3     1  ZINC001083519372   -0.2000
     30 H30         2.3663   -1.1759   59.5485 H       1  ZINC001083519372    0.0600
     31 H31         3.0618   -0.1977   60.8629 H       1  ZINC001083519372    0.0600
     32 H32         1.7214   -1.3189   61.2013 H       1  ZINC001083519372    0.0700
     33 H33         0.2203    0.0454   59.7753 H       1  ZINC001083519372    0.1000
     34 H34         1.7437    1.6780   61.8563 H       1  ZINC001083519372    0.0600
     35 H35         0.1091    2.0361   61.2495 H       1  ZINC001083519372    0.0600
     36 H36         0.4033    0.5568   62.1947 H       1  ZINC001083519372    0.0700
     37 H37        -0.8658    1.3556   57.8649 H       1  ZINC001083519372    0.0900
     38 H38        -0.8829    2.5543   59.1807 H       1  ZINC001083519372    0.0600
     39 H39        -0.0218    2.6834   55.3879 H       1  ZINC001083519372    0.1000
     40 H40        -1.5182    1.8474   55.9159 H       1  ZINC001083519372    0.0600
     41 H41        -3.2317    2.5827   54.1965 H       1  ZINC001083519372    0.4300
     42 H42        -4.8728    2.7977   52.7591 H       1  ZINC001083519372    0.1800
     43 H43        -6.0771    1.8031   50.8281 H       1  ZINC001083519372    0.1900
     44 H44        -2.5830    2.0110   47.2948 H       1  ZINC001083519372    0.1700
     45 H45        -0.2648    3.0542   48.0405 H       1  ZINC001083519372    0.2000
     46 H46        -3.9849    2.7349   55.8859 H       1  ZINC001083519372    0.3900
     47 H47        -2.7336    3.2647   58.1409 H       1  ZINC001083519372    0.0700
     48 H48        -1.9607    4.8748   58.1832 H       1  ZINC001083519372    0.0900
     49 H49         4.0496    2.9446   57.5373 H       1  ZINC001083519372    0.2500
@<TRIPOS>BOND
     1     1     2    1
     2     1    30    1
     3     1    31    1
     4     1    32    1
     5     2     3    1
     6     2     4    1
     7     2    33    1
     8     3    34    1
     9     3    35    1
    10     3    36    1
    11     4    29    1
    12     4     5    2
    13     5     6    1
    14     5    27    1
    15     6     7    1
    16     6    37    1
    17     6    38    1
    18     7    26    1
    19     7     8    1
    20     8     9    1
    21     8    39    1
    22     8    40    1
    23     9    10    1
    24     9    11    1
    25     9    23    1
    26    11    12   am
    27    11    41    1
    28    12    13    2
    29    12    14    1
    30    14    22    1
    31    14    15    2
    32    15    16    1
    33    15    42    1
    34    16    17    2
    35    16    43    1
    36    17    18    1
    37    18    22    1
    38    18    19    2
    39    19    20    1
    40    19    44    1
    41    20    21    2
    42    20    45    1
    43    21    22    1
    44    23    24    1
    45    23    25    1
    46    23    26    1
    47    25    46    1
    48    26    47    1
    49    26    48    1
    50    27    28    2
    51    28    29    1
    52    28    49    1
@<TRIPOS>SUBSTRUCTURE
     1 ZINC001083519372        1 TEMP              0 ****  ****    0 ROOT


##########                                Name:    ZINC001191196975
##########                DOCK_Rotatable_Bonds:                  14
##########                         Heavy_Atoms:                  24
##########                    Molecular_Weight:             339.438
##########                DOCK_Rotatable_Bonds:                  14
##########                       Formal_Charge:          0.00999969
##########                     HBond_Acceptors:                   8
##########                        HBond_Donors:                   4
##########                         Heavy_Atoms:                  24
##########                          Grid_Score:          -35.868496
##########                     Grid_vdw_energy:          -34.777622
##########                      Grid_es_energy:           -1.090875
##########           Internal_energy_repulsive:           12.281851

@<TRIPOS>MOLECULE
ZINC001191196975
 53 53 1 0 0
SMALL
USER_CHARGES


@<TRIPOS>ATOM
      1 C1         -9.4081    5.2287   48.8179 C.2     1  ZINC001191196975   -0.1600
      2 C2         -8.7706    4.8674   49.9037 C.2     1  ZINC001191196975   -0.1800
      3 C3         -8.4016    3.4216   50.1151 C.3     1  ZINC001191196975    0.1500
      4 N4         -7.1800    3.3420   50.9199 N.am    1  ZINC001191196975   -0.7300
      5 C5         -6.2864    2.3591   50.6928 C.2     1  ZINC001191196975    0.5100
      6 O6         -6.4928    1.5413   49.8213 O.2     1  ZINC001191196975   -0.5200
      7 C7         -5.0307    2.2761   51.5219 C.3     1  ZINC001191196975    0.0300
      8 N8         -4.2624    3.5194   51.3727 N.3     1  ZINC001191196975   -0.5100
      9 C9         -4.0412    4.1611   52.6756 C.3     1  ZINC001191196975    0.0200
     10 C10        -2.9882    3.2715   50.6849 C.3     1  ZINC001191196975    0.0700
     11 H11        -2.3311    2.6524   51.2954 H       1  ZINC001191196975    0.0600
     12 C12        -2.2959    4.6054   50.2990 C.3     1  ZINC001191196975   -0.1200
     13 C13        -1.4398    4.2097   49.0776 C.3     1  ZINC001191196975    0.1000
     14 N14        -2.0320    2.9917   48.5055 N.am    1  ZINC001191196975   -0.6200
     15 C15        -1.5629    2.3173   47.4371 C.2     1  ZINC001191196975    0.5300
     16 O16        -2.1354    1.3206   47.0499 O.2     1  ZINC001191196975   -0.5400
     17 C17        -0.3272    2.8016   46.7234 C.3     1  ZINC001191196975   -0.1300
     18 C18         0.9126    2.1860   47.3754 C.3     1  ZINC001191196975   -0.1000
     19 C19         1.3830    0.9886   46.5473 C.3     1  ZINC001191196975   -0.1300
     20 C20         2.6232    0.3735   47.1989 C.3     1  ZINC001191196975    0.1400
     21 N21         2.2528   -0.2295   48.4816 N.am    1  ZINC001191196975   -0.7500
     22 C22         2.9646   -1.2643   48.9703 C.2     1  ZINC001191196975    0.7000
     23 N23         2.6247   -1.8180   50.1511 N.am    1  ZINC001191196975   -0.8700
     24 O24         3.9133   -1.6983   48.3459 O.2     1  ZINC001191196975   -0.5900
     25 C25        -3.2235    2.6288   49.2951 C.3     1  ZINC001191196975    0.1100
     26 H26        -9.6694    4.4904   48.0742 H       1  ZINC001191196975    0.1000
     27 H27        -9.6765    6.2641   48.6685 H       1  ZINC001191196975    0.1000
     28 H28        -8.5093    5.6057   50.6475 H       1  ZINC001191196975    0.1200
     29 H29        -9.2129    2.9119   50.6348 H       1  ZINC001191196975    0.0800
     30 H30        -8.2324    2.9450   49.1496 H       1  ZINC001191196975    0.0700
     31 H31        -7.0145    3.9967   51.6161 H       1  ZINC001191196975    0.4000
     32 H32        -5.2958    2.1364   52.5699 H       1  ZINC001191196975    0.0700
     33 H33        -4.4273    1.4335   51.1843 H       1  ZINC001191196975    0.1100
     34 H34        -3.5852    3.4458   53.3601 H       1  ZINC001191196975    0.0200
     35 H35        -3.3789    5.0176   52.5508 H       1  ZINC001191196975    0.0700
     36 H36        -4.9954    4.4959   53.0824 H       1  ZINC001191196975    0.0900
     37 H37        -3.0349    5.3582   50.0246 H       1  ZINC001191196975    0.0900
     38 H38        -1.6648    4.9618   51.1132 H       1  ZINC001191196975    0.0800
     39 H39        -1.4547    5.0113   48.3391 H       1  ZINC001191196975    0.0700
     40 H40        -0.4150    4.0113   49.3917 H       1  ZINC001191196975    0.0700
     41 H41        -0.3725    2.5038   45.6758 H       1  ZINC001191196975    0.0900
     42 H42        -0.2713    3.8880   46.7903 H       1  ZINC001191196975    0.0900
     43 H43         1.7069    2.9310   47.4207 H       1  ZINC001191196975    0.0800
     44 H44         0.6663    1.8556   48.3845 H       1  ZINC001191196975    0.0800
     45 H45         0.5887    0.2434   46.5024 H       1  ZINC001191196975    0.0700
     46 H46         1.6288    1.3189   45.5381 H       1  ZINC001191196975    0.0700
     47 H47         3.0360   -0.3928   46.5428 H       1  ZINC001191196975    0.0700
     48 H48         3.3696    1.1505   47.3647 H       1  ZINC001191196975    0.0700
     49 H49         1.4951    0.1161   48.9791 H       1  ZINC001191196975    0.4000
     50 H50         3.1363   -2.5636   50.5024 H       1  ZINC001191196975    0.4000
     51 H51         1.8685   -1.4709   50.6498 H       1  ZINC001191196975    0.4200
     52 H52        -3.3031    1.5454   49.3857 H       1  ZINC001191196975    0.0800
     53 H53        -4.1226    3.0390   48.8355 H       1  ZINC001191196975    0.0800
@<TRIPOS>BOND
     1     1     2    2
     2     1    26    1
     3     1    27    1
     4     2     3    1
     5     2    28    1
     6     3     4    1
     7     3    29    1
     8     3    30    1
     9     4     5   am
    10     4    31    1
    11     5     6    2
    12     5     7    1
    13     7     8    1
    14     7    32    1
    15     7    33    1
    16     8     9    1
    17     8    10    1
    18     9    34    1
    19     9    35    1
    20     9    36    1
    21    10    11    1
    22    10    25    1
    23    10    12    1
    24    12    13    1
    25    12    37    1
    26    12    38    1
    27    13    14    1
    28    13    39    1
    29    13    40    1
    30    14    15   am
    31    14    25    1
    32    15    16    2
    33    15    17    1
    34    17    18    1
    35    17    41    1
    36    17    42    1
    37    18    19    1
    38    18    43    1
    39    18    44    1
    40    19    20    1
    41    19    45    1
    42    19    46    1
    43    20    21    1
    44    20    47    1
    45    20    48    1
    46    21    22   am
    47    21    49    1
    48    22    23   am
    49    22    24    2
    50    23    50    1
    51    23    51    1
    52    25    52    1
    53    25    53    1
@<TRIPOS>SUBSTRUCTURE
     1 ZINC001191196975        1 TEMP              0 ****  ****    0 ROOT


##########                                Name:    ZINC000546142192
##########                DOCK_Rotatable_Bonds:                  12
##########                         Heavy_Atoms:                  31
##########                    Molecular_Weight:             420.511
##########                DOCK_Rotatable_Bonds:                  12
##########                       Formal_Charge:          -0.0599997
##########                     HBond_Acceptors:                   7
##########                        HBond_Donors:                   2
##########                         Heavy_Atoms:                  31
##########                          Grid_Score:          -35.845238
##########                     Grid_vdw_energy:          -36.413540
##########                      Grid_es_energy:            0.568303
##########           Internal_energy_repulsive:           12.743941

@<TRIPOS>MOLECULE
ZINC000546142192
 59 61 1 0 0
SMALL
USER_CHARGES


@<TRIPOS>ATOM
      1 C1        -11.7251   -2.8588   54.0297 C.3     1  ZINC000546142192    0.0300
      2 O2        -10.7446   -1.8220   53.7613 O.3     1  ZINC000546142192   -0.3600
      3 C3        -10.9870   -1.0083   52.7216 C.2     1  ZINC000546142192    0.4600
      4 O4        -11.2519   -1.4744   51.6387 O.2     1  ZINC000546142192   -0.5100
      5 C5        -10.9287    0.4863   52.9049 C.3     1  ZINC000546142192   -0.0800
      6 H6        -10.9537    0.9731   51.9301 H       1  ZINC000546142192    0.1100
      7 C7        -12.1291    0.9454   53.7352 C.3     1  ZINC000546142192   -0.1500
      8 C8         -9.6342    0.8611   53.6292 C.3     1  ZINC000546142192   -0.0600
      9 C9         -8.5483    1.1184   52.6163 C.ar    1  ZINC000546142192   -0.1000
     10 C10        -7.7587    0.0742   52.1711 C.ar    1  ZINC000546142192   -0.0900
     11 C11        -6.7630    0.3067   51.2425 C.ar    1  ZINC000546142192   -0.1200
     12 C12        -6.5554    1.5907   50.7561 C.ar    1  ZINC000546142192    0.1600
     13 N13        -5.5477    1.8295   49.8148 N.am    1  ZINC000546142192   -0.6900
     14 C14        -4.3369    2.2617   50.2190 C.2     1  ZINC000546142192    0.7100
     15 O15        -4.1200    2.4441   51.4014 O.2     1  ZINC000546142192   -0.5700
     16 N16        -3.3663    2.4918   49.3125 N.am    1  ZINC000546142192   -0.7400
     17 C17        -2.0506    2.9632   49.7518 C.3     1  ZINC000546142192    0.2300
     18 C18        -1.0297    2.6712   48.6824 C.2     1  ZINC000546142192    0.1800
     19 N19        -1.2085    2.8225   47.3987 N.2     1  ZINC000546142192   -0.4700
     20 C20        -0.0890    2.4672   46.7511 C.2     1  ZINC000546142192   -0.0300
     21 C21         0.8182    2.0810   47.6685 C.2     1  ZINC000546142192   -0.0400
     22 N22         0.2237    2.2154   48.8942 N.pl3   1  ZINC000546142192   -0.4500
     23 C23         0.8309    1.9129   50.1927 C.3     1  ZINC000546142192    0.1100
     24 C24         1.7314    0.6832   50.0606 C.3     1  ZINC000546142192   -0.0900
     25 C25         3.1669    1.0856   50.2810 C.ar    1  ZINC000546142192   -0.0900
     26 C26         3.5323    1.7317   51.4473 C.ar    1  ZINC000546142192   -0.1100
     27 C27         4.8490    2.1008   51.6494 C.ar    1  ZINC000546142192   -0.1200
     28 C28         5.8004    1.8235   50.6856 C.ar    1  ZINC000546142192   -0.1200
     29 C29         5.4351    1.1766   49.5199 C.ar    1  ZINC000546142192   -0.1200
     30 C30         4.1192    0.8036   49.3195 C.ar    1  ZINC000546142192   -0.1100
     31 C31        -7.3502    2.6371   51.2052 C.ar    1  ZINC000546142192   -0.1500
     32 C32        -8.3475    2.3972   52.1299 C.ar    1  ZINC000546142192   -0.0900
     33 H33       -11.8109   -3.5113   53.1609 H       1  ZINC000546142192    0.0600
     34 H34       -11.4086   -3.4434   54.8935 H       1  ZINC000546142192    0.1000
     35 H35       -12.6919   -2.3997   54.2362 H       1  ZINC000546142192    0.0600
     36 H36       -12.1041    0.4586   54.7101 H       1  ZINC000546142192    0.0600
     37 H37       -12.0869    2.0265   53.8678 H       1  ZINC000546142192    0.0800
     38 H38       -13.0512    0.6783   53.2192 H       1  ZINC000546142192    0.0700
     39 H39        -9.7974    1.7603   54.2232 H       1  ZINC000546142192    0.0800
     40 H40        -9.3340    0.0428   54.2838 H       1  ZINC000546142192    0.0800
     41 H41        -7.9204   -0.9240   52.5500 H       1  ZINC000546142192    0.1300
     42 H42        -6.1465   -0.5092   50.8954 H       1  ZINC000546142192    0.1400
     43 H43        -5.7208    1.6841   48.8715 H       1  ZINC000546142192    0.4100
     44 H44        -3.5389    2.3451   48.3694 H       1  ZINC000546142192    0.4000
     45 H45        -2.0910    4.0375   49.9318 H       1  ZINC000546142192    0.0800
     46 H46        -1.7696    2.4509   50.6719 H       1  ZINC000546142192    0.1000
     47 H47         0.0591    2.4872   45.6815 H       1  ZINC000546142192    0.1700
     48 H48         1.8229    1.7358   47.4747 H       1  ZINC000546142192    0.1800
     49 H49         1.4253    2.7648   50.5231 H       1  ZINC000546142192    0.1000
     50 H50         0.0467    1.7123   50.9226 H       1  ZINC000546142192    0.0900
     51 H51         1.4438   -0.0595   50.8048 H       1  ZINC000546142192    0.0800
     52 H52         1.6223    0.2585   49.0626 H       1  ZINC000546142192    0.0800
     53 H53         2.7890    1.9484   52.2001 H       1  ZINC000546142192    0.1200
     54 H54         5.1343    2.6062   52.5602 H       1  ZINC000546142192    0.1200
     55 H55         6.8290    2.1125   50.8433 H       1  ZINC000546142192    0.1200
     56 H56         6.1784    0.9602   48.7668 H       1  ZINC000546142192    0.1200
     57 H57         3.8338    0.2982   48.4087 H       1  ZINC000546142192    0.1200
     58 H58        -7.1911    3.6369   50.8287 H       1  ZINC000546142192    0.1300
     59 H59        -8.9663    3.2106   52.4794 H       1  ZINC000546142192    0.1300
@<TRIPOS>BOND
     1     1     2    1
     2     1    33    1
     3     1    34    1
     4     1    35    1
     5     2     3    1
     6     3     4    2
     7     3     5    1
     8     5     6    1
     9     5     7    1
    10     5     8    1
    11     7    36    1
    12     7    37    1
    13     7    38    1
    14     8     9    1
    15     8    39    1
    16     8    40    1
    17     9    32   ar
    18     9    10   ar
    19    10    11   ar
    20    10    41    1
    21    11    12   ar
    22    11    42    1
    23    12    13    1
    24    12    31   ar
    25    13    14   am
    26    13    43    1
    27    14    15    2
    28    14    16   am
    29    16    17    1
    30    16    44    1
    31    17    18    1
    32    17    45    1
    33    17    46    1
    34    18    22    1
    35    18    19    2
    36    19    20    1
    37    20    21    2
    38    20    47    1
    39    21    22    1
    40    21    48    1
    41    22    23    1
    42    23    24    1
    43    23    49    1
    44    23    50    1
    45    24    25    1
    46    24    51    1
    47    24    52    1
    48    25    30   ar
    49    25    26   ar
    50    26    27   ar
    51    26    53    1
    52    27    28   ar
    53    27    54    1
    54    28    29   ar
    55    28    55    1
    56    29    30   ar
    57    29    56    1
    58    30    57    1
    59    31    32   ar
    60    31    58    1
    61    32    59    1
@<TRIPOS>SUBSTRUCTURE
     1 ZINC000546142192        1 TEMP              0 ****  ****    0 ROOT


##########                                Name:    ZINC001296589646
##########                DOCK_Rotatable_Bonds:                   8
##########                         Heavy_Atoms:                  29
##########                    Molecular_Weight:             398.548
##########                DOCK_Rotatable_Bonds:                   8
##########                       Formal_Charge:          -0.0200008
##########                     HBond_Acceptors:                   6
##########                        HBond_Donors:                   0
##########                         Heavy_Atoms:                  29
##########                          Grid_Score:          -35.799500
##########                     Grid_vdw_energy:          -34.780254
##########                      Grid_es_energy:           -1.019246
##########           Internal_energy_repulsive:           25.466436

@<TRIPOS>MOLECULE
ZINC001296589646
 63 66 1 0 0
SMALL
USER_CHARGES


@<TRIPOS>ATOM
      1 C1          1.9999    1.8463   50.6150 C.3     1  ZINC001296589646   -0.1500
      2 C2          0.8027    2.0507   49.6846 C.3     1  ZINC001296589646    0.0500
      3 O3          0.7210    3.4270   49.3087 O.3     1  ZINC001296589646   -0.3600
      4 C4         -0.3109    3.7106   48.3618 C.3     1  ZINC001296589646    0.1800
      5 C5         -1.6334    3.1628   48.8331 C.2     1  ZINC001296589646    0.1500
      6 N6         -2.3980    2.3287   48.1872 N.2     1  ZINC001296589646   -0.2600
      7 N7         -3.4507    2.0704   48.8780 N.2     1  ZINC001296589646   -0.3200
      8 C8         -3.4137    2.7314   50.0109 C.2     1  ZINC001296589646    0.3600
      9 N9         -4.3724    2.7056   51.0114 N.3     1  ZINC001296589646   -0.4300
     10 C10        -5.0424    4.0248   51.1409 C.3     1  ZINC001296589646    0.0300
     11 C11        -6.3655    3.6805   51.8697 C.3     1  ZINC001296589646   -0.1200
     12 C12        -6.7577    2.3196   51.2499 C.3     1  ZINC001296589646   -0.1000
     13 H13        -7.4787    2.4640   50.4455 H       1  ZINC001296589646    0.0800
     14 C14        -7.3376    1.3950   52.3221 C.3     1  ZINC001296589646   -0.1400
     15 C15        -5.4449    1.7382   50.6930 C.3     1  ZINC001296589646    0.0500
     16 N16        -2.2504    3.4444   50.0204 N.pl3   1  ZINC001296589646   -0.4600
     17 C17        -1.7673    4.3348   51.0788 C.3     1  ZINC001296589646    0.1000
     18 C18        -1.6633    3.5566   52.3920 C.3     1  ZINC001296589646   -0.1300
     19 C19        -0.8291    4.3568   53.3942 C.3     1  ZINC001296589646   -0.0500
     20 H20         0.1420    4.5876   52.9563 H       1  ZINC001296589646    0.0800
     21 C21        -1.5557    5.6584   53.7385 C.3     1  ZINC001296589646   -0.1500
     22 C22        -0.6341    3.5435   54.6479 C.ar    1  ZINC001296589646   -0.0800
     23 C23        -1.7073    3.2911   55.4819 C.ar    1  ZINC001296589646   -0.1100
     24 C24        -1.5285    2.5451   56.6319 C.ar    1  ZINC001296589646   -0.1200
     25 C25        -0.2766    2.0513   56.9477 C.ar    1  ZINC001296589646   -0.1200
     26 C26         0.7964    2.3030   56.1133 C.ar    1  ZINC001296589646   -0.1200
     27 C27         0.6167    3.0453   54.9611 C.ar    1  ZINC001296589646   -0.1200
     28 C28         0.0560    3.1513   46.9602 C.3     1  ZINC001296589646   -0.1400
     29 C29         0.9379    4.2990   46.4071 C.3     1  ZINC001296589646    0.0600
     30 O30         0.3369    5.5059   46.9027 O.3     1  ZINC001296589646   -0.3700
     31 C31        -0.4088    5.2278   48.0937 C.3     1  ZINC001296589646    0.0400
     32 H32         2.9219    2.0527   50.0715 H       1  ZINC001296589646    0.0600
     33 H33         1.9196    2.5243   51.4647 H       1  ZINC001296589646    0.0700
     34 H34         2.0112    0.8164   50.9718 H       1  ZINC001296589646    0.0700
     35 H35         0.9271    1.4371   48.7922 H       1  ZINC001296589646    0.0500
     36 H36        -0.1123    1.7600   50.2005 H       1  ZINC001296589646    0.0600
     37 H37        -4.4385    4.7057   51.7408 H       1  ZINC001296589646    0.0900
     38 H38        -5.2442    4.4519   50.1585 H       1  ZINC001296589646    0.0600
     39 H39        -6.2006    3.5825   52.9427 H       1  ZINC001296589646    0.0800
     40 H40        -7.1270    4.4324   51.6626 H       1  ZINC001296589646    0.0800
     41 H41        -8.2385    1.8441   52.7404 H       1  ZINC001296589646    0.0600
     42 H42        -7.5851    0.4318   51.8762 H       1  ZINC001296589646    0.0600
     43 H43        -6.6024    1.2507   53.1138 H       1  ZINC001296589646    0.0600
     44 H44        -5.5231    1.6126   49.6130 H       1  ZINC001296589646    0.0800
     45 H45        -5.2329    0.7796   51.1665 H       1  ZINC001296589646    0.0900
     46 H46        -0.7855    4.7226   50.8074 H       1  ZINC001296589646    0.1100
     47 H47        -2.4641    5.1641   51.2021 H       1  ZINC001296589646    0.1000
     48 H48        -2.6617    3.3941   52.7981 H       1  ZINC001296589646    0.0800
     49 H49        -1.1852    2.5946   52.2072 H       1  ZINC001296589646    0.0700
     50 H50        -0.9614    6.2284   54.4527 H       1  ZINC001296589646    0.0600
     51 H51        -1.6967    6.2465   52.8317 H       1  ZINC001296589646    0.0600
     52 H52        -2.5268    5.4275   54.1765 H       1  ZINC001296589646    0.0600
     53 H53        -2.6855    3.6769   55.2351 H       1  ZINC001296589646    0.1200
     54 H54        -2.3668    2.3484   57.2837 H       1  ZINC001296589646    0.1200
     55 H55        -0.1368    1.4691   57.8465 H       1  ZINC001296589646    0.1200
     56 H56         1.7745    1.9175   56.3603 H       1  ZINC001296589646    0.1200
     57 H57         1.4550    3.2420   54.3093 H       1  ZINC001296589646    0.1200
     58 H58         0.6241    2.2246   47.0434 H       1  ZINC001296589646    0.1000
     59 H59        -0.8346    3.0102   46.3479 H       1  ZINC001296589646    0.1000
     60 H60         1.9584    4.2045   46.7783 H       1  ZINC001296589646    0.0700
     61 H61         0.9287    4.2916   45.3173 H       1  ZINC001296589646    0.0900
     62 H62        -1.4515    5.5117   47.9518 H       1  ZINC001296589646    0.1000
     63 H63         0.0151    5.7796   48.9326 H       1  ZINC001296589646    0.0800
@<TRIPOS>BOND
     1     1     2    1
     2     1    32    1
     3     1    33    1
     4     1    34    1
     5     2     3    1
     6     2    35    1
     7     2    36    1
     8     3     4    1
     9     4    31    1
    10     4     5    1
    11     4    28    1
    12     5    16    1
    13     5     6    2
    14     6     7    1
    15     7     8    2
    16     8     9    1
    17     8    16    1
    18     9    15    1
    19     9    10    1
    20    10    11    1
    21    10    37    1
    22    10    38    1
    23    11    12    1
    24    11    39    1
    25    11    40    1
    26    12    13    1
    27    12    14    1
    28    12    15    1
    29    14    41    1
    30    14    42    1
    31    14    43    1
    32    15    44    1
    33    15    45    1
    34    16    17    1
    35    17    18    1
    36    17    46    1
    37    17    47    1
    38    18    19    1
    39    18    48    1
    40    18    49    1
    41    19    20    1
    42    19    21    1
    43    19    22    1
    44    21    50    1
    45    21    51    1
    46    21    52    1
    47    22    27   ar
    48    22    23   ar
    49    23    24   ar
    50    23    53    1
    51    24    25   ar
    52    24    54    1
    53    25    26   ar
    54    25    55    1
    55    26    27   ar
    56    26    56    1
    57    27    57    1
    58    28    29    1
    59    28    58    1
    60    28    59    1
    61    29    30    1
    62    29    60    1
    63    29    61    1
    64    30    31    1
    65    31    62    1
    66    31    63    1
@<TRIPOS>SUBSTRUCTURE
     1 ZINC001296589646        1 TEMP              0 ****  ****    0 ROOT


##########                                Name:    ZINC000428266315
##########                DOCK_Rotatable_Bonds:                  10
##########                         Heavy_Atoms:                  30
##########                    Molecular_Weight:             423.438
##########                DOCK_Rotatable_Bonds:                  10
##########                       Formal_Charge:          0.00999977
##########                     HBond_Acceptors:                  10
##########                        HBond_Donors:                   0
##########                         Heavy_Atoms:                  30
##########                          Grid_Score:          -35.711536
##########                     Grid_vdw_energy:          -34.358143
##########                      Grid_es_energy:           -1.353394
##########           Internal_energy_repulsive:            9.558450

@<TRIPOS>MOLECULE
ZINC000428266315
 54 56 1 0 0
SMALL
USER_CHARGES


@<TRIPOS>ATOM
      1 C1        -11.9636   -2.9177   55.1252 C.3     1  ZINC000428266315   -0.1500
      2 C2        -11.7671   -2.3767   53.7076 C.3     1  ZINC000428266315    0.0600
      3 O3        -10.7914   -1.3328   53.7271 O.3     1  ZINC000428266315   -0.3700
      4 C4        -10.5932   -0.6986   52.4620 C.3     1  ZINC000428266315    0.1800
      5 H5        -10.4720   -1.4583   51.6898 H       1  ZINC000428266315    0.0900
      6 C6        -11.8064    0.1737   52.1332 C.3     1  ZINC000428266315   -0.1700
      7 C7         -9.3570    0.1613   52.5192 C.2     1  ZINC000428266315    0.1700
      8 N8         -8.1322   -0.2409   52.3557 N.2     1  ZINC000428266315   -0.3500
      9 O9         -7.3659    0.6934   52.4609 O.3     1  ZINC000428266315    0.0800
     10 C10        -8.0498    1.8144   52.7088 C.2     1  ZINC000428266315    0.1900
     11 C11        -7.4729    3.1926   52.9060 C.3     1  ZINC000428266315    0.1500
     12 N12        -6.5274    3.4875   51.8211 N.3     1  ZINC000428266315   -0.5300
     13 C13        -6.5306    4.9198   51.4948 C.3     1  ZINC000428266315    0.0200
     14 C14        -5.1745    3.0284   52.1626 C.3     1  ZINC000428266315    0.1400
     15 C15        -4.3449    2.9327   50.9081 C.2     1  ZINC000428266315   -0.2300
     16 C16        -3.2489    3.6723   50.6202 C.2     1  ZINC000428266315    0.0800
     17 N17        -2.7981    3.2853   49.4085 N.pl3   1  ZINC000428266315   -0.3700
     18 C18        -1.6292    3.8263   48.7105 C.3     1  ZINC000428266315    0.1700
     19 C19        -0.4984    2.8326   48.7799 C.ar    1  ZINC000428266315   -0.0800
     20 C20         0.2218    2.6856   49.9505 C.ar    1  ZINC000428266315   -0.1000
     21 C21         1.2592    1.7741   50.0141 C.ar    1  ZINC000428266315   -0.0700
     22 C22         1.5759    1.0092   48.9071 C.ar    1  ZINC000428266315   -0.1700
     23 C23         2.7071    0.0159   48.9762 C.3     1  ZINC000428266315    0.5100
     24 F24         3.6516    0.4492   49.9129 F       1  ZINC000428266315   -0.1700
     25 F25         2.2080   -1.2332   49.3607 F       1  ZINC000428266315   -0.1800
     26 F26         3.3118   -0.0903   47.7192 F       1  ZINC000428266315   -0.1800
     27 C27         0.8548    1.1553   47.7367 C.ar    1  ZINC000428266315   -0.0700
     28 C28        -0.1850    2.0640   47.6744 C.ar    1  ZINC000428266315   -0.0800
     29 N29        -3.6453    2.2745   48.9361 N.2     1  ZINC000428266315   -0.2900
     30 C30        -4.5682    2.0599   49.8383 C.2     1  ZINC000428266315    0.0600
     31 N31        -9.3191    1.4869   52.7429 N.2     1  ZINC000428266315   -0.4600
     32 H32       -12.7078   -3.7139   55.1104 H       1  ZINC000428266315    0.0700
     33 H33       -11.0180   -3.3110   55.4983 H       1  ZINC000428266315    0.0600
     34 H34       -12.3049   -2.1134   55.7769 H       1  ZINC000428266315    0.0600
     35 H35       -11.4257   -3.1810   53.0559 H       1  ZINC000428266315    0.0500
     36 H36       -12.7127   -1.9833   53.3345 H       1  ZINC000428266315    0.0500
     37 H37       -11.9277    0.9334   52.9054 H       1  ZINC000428266315    0.0700
     38 H38       -11.6553    0.6574   51.1682 H       1  ZINC000428266315    0.0700
     39 H39       -12.7006   -0.4483   52.0918 H       1  ZINC000428266315    0.0700
     40 H40        -8.2774    3.9281   52.8967 H       1  ZINC000428266315    0.0800
     41 H41        -6.9527    3.2353   53.8629 H       1  ZINC000428266315    0.1200
     42 H42        -6.2421    5.4937   52.3756 H       1  ZINC000428266315    0.0400
     43 H43        -5.8219    5.1105   50.6889 H       1  ZINC000428266315    0.0800
     44 H44        -7.5300    5.2181   51.1782 H       1  ZINC000428266315    0.0600
     45 H45        -4.7130    3.7373   52.8502 H       1  ZINC000428266315    0.0500
     46 H46        -5.2320    2.0481   52.6357 H       1  ZINC000428266315    0.0900
     47 H47        -2.8128    4.4356   51.2477 H       1  ZINC000428266315    0.1700
     48 H48        -1.8838    4.0148   47.6676 H       1  ZINC000428266315    0.1000
     49 H49        -1.3228    4.7590   49.1842 H       1  ZINC000428266315    0.1100
     50 H50        -0.0257    3.2832   50.8154 H       1  ZINC000428266315    0.1300
     51 H51         1.8223    1.6597   50.9286 H       1  ZINC000428266315    0.1400
     52 H52         1.1021    0.5574   46.8719 H       1  ZINC000428266315    0.1400
     53 H53        -0.7484    2.1781   46.7601 H       1  ZINC000428266315    0.1400
     54 H54        -5.3689    1.3387   49.7660 H       1  ZINC000428266315    0.1800
@<TRIPOS>BOND
     1     1     2    1
     2     1    32    1
     3     1    33    1
     4     1    34    1
     5     2     3    1
     6     2    35    1
     7     2    36    1
     8     3     4    1
     9     4     5    1
    10     4     6    1
    11     4     7    1
    12     6    37    1
    13     6    38    1
    14     6    39    1
    15     7    31    1
    16     7     8    2
    17     8     9    1
    18     9    10    1
    19    10    11    1
    20    10    31    2
    21    11    12    1
    22    11    40    1
    23    11    41    1
    24    12    13    1
    25    12    14    1
    26    13    42    1
    27    13    43    1
    28    13    44    1
    29    14    15    1
    30    14    45    1
    31    14    46    1
    32    15    30    1
    33    15    16    2
    34    16    17    1
    35    16    47    1
    36    17    18    1
    37    17    29    1
    38    18    19    1
    39    18    48    1
    40    18    49    1
    41    19    28   ar
    42    19    20   ar
    43    20    21   ar
    44    20    50    1
    45    21    22   ar
    46    21    51    1
    47    22    23    1
    48    22    27   ar
    49    23    24    1
    50    23    25    1
    51    23    26    1
    52    27    28   ar
    53    27    52    1
    54    28    53    1
    55    29    30    2
    56    30    54    1
@<TRIPOS>SUBSTRUCTURE
     1 ZINC000428266315        1 TEMP              0 ****  ****    0 ROOT


##########                                Name:    ZINC000770814339
##########                DOCK_Rotatable_Bonds:                  13
##########                         Heavy_Atoms:                  28
##########                    Molecular_Weight:             409.423
##########                DOCK_Rotatable_Bonds:                  13
##########                       Formal_Charge:          -0.0100008
##########                     HBond_Acceptors:                  12
##########                        HBond_Donors:                   4
##########                         Heavy_Atoms:                  28
##########                          Grid_Score:          -35.633457
##########                     Grid_vdw_energy:          -32.089874
##########                      Grid_es_energy:           -3.543582
##########           Internal_energy_repulsive:            7.101969

@<TRIPOS>MOLECULE
ZINC000770814339
 47 48 1 0 0
SMALL
USER_CHARGES


@<TRIPOS>ATOM
      1 C1         -0.5831    2.7253   58.6508 C.3     1  ZINC000770814339   -0.1500
      2 C2          0.0196    2.1298   57.3767 C.3     1  ZINC000770814339    0.0600
      3 O3          0.5507    3.1972   56.5478 O.3     1  ZINC000770814339   -0.3500
      4 C4         -0.3391    4.0100   55.9569 C.2     1  ZINC000770814339    0.4700
      5 O5         -0.1366    5.2004   55.9171 O.2     1  ZINC000770814339   -0.4800
      6 C6         -1.5909    3.4377   55.3432 C.3     1  ZINC000770814339    0.0700
      7 O7         -2.0282    4.2830   54.2772 O.3     1  ZINC000770814339   -0.1800
      8 N8         -3.0019    3.6920   53.4360 N.2     1  ZINC000770814339   -0.2800
      9 C9         -2.7595    3.5416   52.1645 C.2     1  ZINC000770814339    0.1800
     10 C10        -1.4640    3.9874   51.5993 C.2     1  ZINC000770814339    0.5900
     11 O11        -1.2579    5.1700   51.4114 O.2     1  ZINC000770814339   -0.5100
     12 N12        -0.5146    3.0809   51.2936 N.am    1  ZINC000770814339   -0.7000
     13 C13         0.7666    3.5217   50.7364 C.3     1  ZINC000770814339    0.1500
     14 C14         1.6833    2.3351   50.5850 C.ar    1  ZINC000770814339   -0.0600
     15 C15         1.2907    1.2511   49.8224 C.ar    1  ZINC000770814339   -0.1200
     16 C16         2.1316    0.1628   49.6835 C.ar    1  ZINC000770814339   -0.0200
     17 C17         3.3655    0.1588   50.3067 C.ar    1  ZINC000770814339   -0.6700
     18 S18         4.4371   -1.2287   50.1301 S.o2    1  ZINC000770814339    2.7000
     19 N19         3.5222   -2.5882   50.3685 N.am    1  ZINC000770814339   -1.2500
     20 O20         4.8427   -1.2516   48.7684 O.2     1  ZINC000770814339   -0.9600
     21 O21         5.3547   -1.1675   51.2135 O.2     1  ZINC000770814339   -0.9600
     22 C22         3.7588    1.2433   51.0682 C.ar    1  ZINC000770814339   -0.0200
     23 C23         2.9193    2.3333   51.2039 C.ar    1  ZINC000770814339   -0.1200
     24 C24        -3.7755    2.9272   51.2868 C.2     1  ZINC000770814339    0.0600
     25 C25        -5.1224    2.8064   51.5532 C.2     1  ZINC000770814339   -0.2000
     26 C26        -5.7139    2.1689   50.4636 C.2     1  ZINC000770814339    0.0400
     27 N27        -4.7878    1.9104   49.5752 N.2     1  ZINC000770814339   -0.2600
     28 N28        -3.5586    2.3775   50.0569 N.pl3   1  ZINC000770814339   -0.4400
     29 H29        -0.9817    1.9241   59.2730 H       1  ZINC000770814339    0.0800
     30 H30         0.1891    3.2629   59.2011 H       1  ZINC000770814339    0.0700
     31 H31        -1.3860    3.4132   58.3858 H       1  ZINC000770814339    0.0700
     32 H32         0.8226    1.4419   57.6418 H       1  ZINC000770814339    0.0700
     33 H33        -0.7525    1.5923   56.8264 H       1  ZINC000770814339    0.0700
     34 H34        -1.3820    2.4411   54.9543 H       1  ZINC000770814339    0.1100
     35 H35        -2.3716    3.3756   56.1012 H       1  ZINC000770814339    0.1100
     36 H36        -0.6797    2.1367   51.4424 H       1  ZINC000770814339    0.4100
     37 H37         0.6005    3.9793   49.7612 H       1  ZINC000770814339    0.0900
     38 H38         1.2229    4.2501   51.4067 H       1  ZINC000770814339    0.0900
     39 H39         0.3266    1.2543   49.3355 H       1  ZINC000770814339    0.1400
     40 H40         1.8244   -0.6844   49.0883 H       1  ZINC000770814339    0.1500
     41 H41         3.0639   -2.7225   51.2127 H       1  ZINC000770814339    0.4200
     42 H42         3.4446   -3.2503   49.6637 H       1  ZINC000770814339    0.4200
     43 H43         4.7229    1.2404   51.5548 H       1  ZINC000770814339    0.1500
     44 H44         3.2266    3.1807   51.7988 H       1  ZINC000770814339    0.1400
     45 H45        -5.6285    3.1444   52.4455 H       1  ZINC000770814339    0.1700
     46 H46        -6.7623    1.9280   50.3683 H       1  ZINC000770814339    0.1900
     47 H47        -2.7050    2.3161   49.6006 H       1  ZINC000770814339    0.4500
@<TRIPOS>BOND
     1     1     2    1
     2     1    29    1
     3     1    30    1
     4     1    31    1
     5     2     3    1
     6     2    32    1
     7     2    33    1
     8     3     4    1
     9     4     5    2
    10     4     6    1
    11     6     7    1
    12     6    34    1
    13     6    35    1
    14     7     8    1
    15     8     9    2
    16     9    10    1
    17     9    24    1
    18    10    11    2
    19    10    12   am
    20    12    13    1
    21    12    36    1
    22    13    14    1
    23    13    37    1
    24    13    38    1
    25    14    23   ar
    26    14    15   ar
    27    15    16   ar
    28    15    39    1
    29    16    17   ar
    30    16    40    1
    31    17    18    1
    32    17    22   ar
    33    18    19   am
    34    18    20    2
    35    18    21    2
    36    19    41    1
    37    19    42    1
    38    22    23   ar
    39    22    43    1
    40    23    44    1
    41    24    28    1
    42    24    25    2
    43    25    26    1
    44    25    45    1
    45    26    27    2
    46    26    46    1
    47    27    28    1
    48    28    47    1
@<TRIPOS>SUBSTRUCTURE
     1 ZINC000770814339        1 TEMP              0 ****  ****    0 ROOT


##########                                Name:     oleObject52.pdb
##########                DOCK_Rotatable_Bonds:                  10
##########                         Heavy_Atoms:                  38
##########                    Molecular_Weight:              533.07
##########                DOCK_Rotatable_Bonds:                  10
##########                       Formal_Charge:         0.000300027
##########                     HBond_Acceptors:                   8
##########                        HBond_Donors:                   0
##########                         Heavy_Atoms:                  38
##########                          Grid_Score:          -35.571495
##########                     Grid_vdw_energy:          -34.955181
##########                      Grid_es_energy:           -0.616312
##########           Internal_energy_repulsive:           34.071571

@<TRIPOS>MOLECULE
oleObject52.pdb
 71 74 1 0 0
SMALL
NO_CHARGES


@<TRIPOS>ATOM
      1 C           1.3401   -2.5899   62.1133 C.ar    1  UNL        -0.0596
      2 C           2.5519   -1.8846   62.1637 C.ar    1  UNL        -0.0314
      3 C           2.6893   -0.6528   61.4888 C.ar    1  UNL         0.0800
      4 C           1.5988   -0.1239   60.7599 C.ar    1  UNL         0.0089
      5 C           0.3881   -0.8481   60.7138 C.ar    1  UNL        -0.0541
      6 C           0.2591   -2.0721   61.3872 C.ar    1  UNL        -0.0617
      7 C           1.7576    1.2152   60.0236 C.3     1  UNL         0.0953
      8 C           2.4388    2.2866   60.8931 C.ar    1  UNL         0.0684
      9 C           1.7427    2.9698   61.9218 C.ar    1  UNL        -0.0272
     10 C           2.4403    3.9279   62.6811 C.ar    1  UNL        -0.0559
     11 C           3.7918    4.1725   62.3984 C.ar    1  UNL        -0.0435
     12 C           4.4039    3.4479   61.3651 C.ar    1  UNL         0.0272
     13 N           3.7456    2.5298   60.6333 N.ar    1  UNL        -0.2587
     14 C           0.2788    2.6896   62.2390 C.3     1  UNL        -0.0379
     15 N           2.3154    1.0942   58.6463 N.am    1  UNL        -0.2917
     16 C           1.9460    2.0080   57.6534 C.2     1  UNL         0.2180
     17 O           2.1828    1.7723   56.4802 O.2     1  UNL        -0.2772
     18 C           0.9494    3.1268   58.0506 C.3     1  UNL         0.0385
     19 C          -0.5198    2.7172   57.7865 C.3     1  UNL        -0.0289
     20 C          -0.8665    2.7365   56.2821 C.3     1  UNL        -0.0010
     21 N          -0.6022    4.0640   55.6800 N.4     1  UNL        -0.3010
     22 C           0.7956    4.5115   55.8661 C.3     1  UNL        -0.0010
     23 C           1.2408    4.4800   57.3490 C.3     1  UNL        -0.0289
     24 C          -1.0227    4.1859   54.2664 C.3     1  UNL         0.0222
     25 C          -2.4957    3.7951   54.0273 C.3     1  UNL         0.0661
     26 O          -2.9066    4.3760   52.7768 O.3     1  UNL        -0.3432
     27 C          -2.6410    3.8080   51.5458 C.ar    1  UNL         0.0937
     28 C          -1.4195    4.0187   50.8722 C.ar    1  UNL        -0.0289
     29 C          -1.1896    3.4219   49.6213 C.ar    1  UNL        -0.0417
     30 C          -2.1746    2.6107   49.0321 C.ar    1  UNL         0.0537
     31 C          -3.3925    2.3979   49.6999 C.ar    1  UNL        -0.0230
     32 C          -3.6251    2.9933   50.9509 C.ar    1  UNL         0.0721
     33 CL         -5.1577    2.7041   51.7527 Cl      1  UNL        -0.0814
     34 C          -1.9376    2.0024   47.7545 C.1     1  UNL         0.0992
     35 N          -1.7374    1.5178   46.7238 N.1     1  UNL        -0.1924
     36 C           3.2273   -0.0414   58.3879 C.3     1  UNL         0.0037
     37 O           3.8774    0.0574   61.5163 O.3     1  UNL        -0.3490
     38 C           5.0542   -0.3811   62.2157 C.3     1  UNL         0.0422
     39 H           1.2407   -3.5375   62.6347 H       1  UNL         0.0624
     40 H           3.3759   -2.3061   62.7293 H       1  UNL         0.0651
     41 H          -0.4613   -0.4694   60.1557 H       1  UNL         0.0627
     42 H          -0.6787   -2.6184   61.3450 H       1  UNL         0.0623
     43 H           0.7300    1.5671   59.8801 H       1  UNL         0.0627
     44 H           1.9453    4.4709   63.4811 H       1  UNL         0.0627
     45 H           4.3547    4.9041   62.9702 H       1  UNL         0.0639
     46 H           5.4529    3.6044   61.1167 H       1  UNL         0.0840
     47 H          -0.3399    2.7477   61.3373 H       1  UNL         0.0280
     48 H          -0.1254    3.4111   62.9598 H       1  UNL         0.0280
     49 H           0.1569    1.6879   62.6700 H       1  UNL         0.0280
     50 H           1.0633    3.3105   59.1241 H       1  UNL         0.0402
     51 H          -1.1845    3.4182   58.3077 H       1  UNL         0.0288
     52 H          -0.7273    1.7256   58.2049 H       1  UNL         0.0288
     53 H          -1.9243    2.4687   56.1784 H       1  UNL         0.0431
     54 H          -0.2744    1.9707   55.7635 H       1  UNL         0.0431
     55 H           0.9090    5.5373   55.4925 H       1  UNL         0.0431
     56 H           1.4641    3.8761   55.2719 H       1  UNL         0.0431
     57 H           0.7039    5.2739   57.8841 H       1  UNL         0.0288
     58 H           2.3087    4.7223   57.4236 H       1  UNL         0.0288
     59 H          -0.3790    3.5643   53.6302 H       1  UNL         0.0455
     60 H          -0.8984    5.2276   53.9426 H       1  UNL         0.0455
     61 H          -3.1134    4.1824   54.8477 H       1  UNL         0.0586
     62 H          -2.5963    2.7039   53.9837 H       1  UNL         0.0586
     63 H          -0.6427    4.6401   51.3059 H       1  UNL         0.0651
     64 H          -0.2446    3.5910   49.1113 H       1  UNL         0.0638
     65 H          -4.1591    1.7719   49.2508 H       1  UNL         0.0653
     66 H           3.0045   -0.8790   59.0586 H       1  UNL         0.0433
     67 H           4.2675    0.2710   58.5415 H       1  UNL         0.0433
     68 H           3.1019   -0.4074   57.3623 H       1  UNL         0.0433
     69 H           5.8611    0.3489   62.0776 H       1  UNL         0.0535
     70 H           5.3922   -1.3503   61.8274 H       1  UNL         0.0535
     71 H           4.8502   -0.4740   63.2898 H       1  UNL         0.0535
@<TRIPOS>BOND
     1     1     2   ar
     2     1     6   ar
     3     1    39    1
     4     2     3   ar
     5     2    40    1
     6     3     4   ar
     7     3    37    1
     8     4     5   ar
     9     4     7    1
    10     5     6   ar
    11     5    41    1
    12     6    42    1
    13     7     8    1
    14     7    15    1
    15     7    43    1
    16     8     9   ar
    17     8    13   ar
    18     9    10   ar
    19     9    14    1
    20    10    11   ar
    21    10    44    1
    22    11    12   ar
    23    11    45    1
    24    12    13   ar
    25    12    46    1
    26    14    47    1
    27    14    48    1
    28    14    49    1
    29    15    16   am
    30    15    36    1
    31    16    17    2
    32    16    18    1
    33    18    19    1
    34    18    23    1
    35    18    50    1
    36    19    20    1
    37    19    51    1
    38    19    52    1
    39    20    21    1
    40    20    53    1
    41    20    54    1
    42    21    22    1
    43    21    24    1
    44    22    23    1
    45    22    55    1
    46    22    56    1
    47    23    57    1
    48    23    58    1
    49    24    25    1
    50    24    59    1
    51    24    60    1
    52    25    26    1
    53    25    61    1
    54    25    62    1
    55    26    27    1
    56    27    28   ar
    57    27    32   ar
    58    28    29   ar
    59    28    63    1
    60    29    30   ar
    61    29    64    1
    62    30    31   ar
    63    30    34    1
    64    31    32   ar
    65    31    65    1
    66    32    33    1
    67    34    35    3
    68    36    66    1
    69    36    67    1
    70    36    68    1
    71    37    38    1
    72    38    69    1
    73    38    70    1
    74    38    71    1
@<TRIPOS>SUBSTRUCTURE
     1 UNL         1 TEMP              0 ****  ****    0 ROOT


##########                                Name:    ZINC001461256440
##########                DOCK_Rotatable_Bonds:                  13
##########                         Heavy_Atoms:                  26
##########                    Molecular_Weight:             367.445
##########                DOCK_Rotatable_Bonds:                  13
##########                       Formal_Charge:        -6.37025e-07
##########                     HBond_Acceptors:                   8
##########                        HBond_Donors:                   1
##########                         Heavy_Atoms:                  26
##########                          Grid_Score:          -35.537327
##########                     Grid_vdw_energy:          -32.522072
##########                      Grid_es_energy:           -3.015254
##########           Internal_energy_repulsive:           37.858280

@<TRIPOS>MOLECULE
ZINC001461256440
 55 55 1 0 0
SMALL
USER_CHARGES


@<TRIPOS>ATOM
      1 C1         -6.6982   -1.2410   51.6455 C.3     1  ZINC001461256440   -0.1500
      2 C2         -6.6236    0.0802   50.8775 C.3     1  ZINC001461256440    0.0600
      3 O3         -5.4230    0.7987   51.2658 O.3     1  ZINC001461256440   -0.3600
      4 C4         -5.1849    1.9663   50.6482 C.2     1  ZINC001461256440    0.4400
      5 O5         -5.8290    2.2769   49.6743 O.2     1  ZINC001461256440   -0.4800
      6 C6         -4.1141    2.8898   51.1693 C.3     1  ZINC001461256440    0.1400
      7 N7         -2.9211    2.7791   50.3262 N.pl3   1  ZINC001461256440   -0.3800
      8 N8         -2.9072    2.6024   48.9368 N.2     1  ZINC001461256440   -0.2800
      9 C9         -1.6614    2.5487   48.5402 C.2     1  ZINC001461256440    0.1000
     10 C10        -1.1949    2.3677   47.1188 C.3     1  ZINC001461256440   -0.0700
     11 C11        -0.8374    2.6890   49.6603 C.2     1  ZINC001461256440   -0.2700
     12 C12        -1.6382    2.8352   50.7511 C.2     1  ZINC001461256440    0.3100
     13 N13        -1.2131    3.0038   52.0688 N.am    1  ZINC001461256440   -0.6500
     14 C14        -1.2531    4.2244   52.6388 C.2     1  ZINC001461256440    0.5200
     15 O15        -1.6600    5.1761   52.0064 O.2     1  ZINC001461256440   -0.5000
     16 C16        -0.7921    4.4069   54.0619 C.3     1  ZINC001461256440   -0.1300
     17 C17        -1.9146    3.9987   55.0179 C.3     1  ZINC001461256440   -0.1100
     18 C18        -1.5240    4.3681   56.4504 C.3     1  ZINC001461256440   -0.1100
     19 C19        -2.4874    3.6964   57.4311 C.3     1  ZINC001461256440   -0.1200
     20 C20        -3.8982    4.1291   57.1252 C.2     1  ZINC001461256440    0.4600
     21 O21        -4.1182    5.2609   56.7643 O.2     1  ZINC001461256440   -0.5000
     22 O22        -4.9104    3.2568   57.2537 O.3     1  ZINC001461256440   -0.3500
     23 C23        -6.2488    3.7576   56.9963 C.3     1  ZINC001461256440    0.1200
     24 C24        -7.2663    2.6406   57.2368 C.3     1  ZINC001461256440   -0.1800
     25 C25        -6.5448    4.9281   57.9361 C.3     1  ZINC001461256440   -0.1400
     26 C26        -6.3455    4.2318   55.5449 C.3     1  ZINC001461256440   -0.1800
     27 H27        -7.5994   -1.7803   51.3540 H       1  ZINC001461256440    0.0800
     28 H28        -5.8217   -1.8460   51.4137 H       1  ZINC001461256440    0.0700
     29 H29        -6.7266   -1.0378   52.7161 H       1  ZINC001461256440    0.0700
     30 H30        -6.5951   -0.1229   49.8070 H       1  ZINC001461256440    0.0700
     31 H31        -7.5001    0.6852   51.1094 H       1  ZINC001461256440    0.0700
     32 H32        -4.4789    3.9167   51.1496 H       1  ZINC001461256440    0.1300
     33 H33        -3.8623    2.6132   52.1930 H       1  ZINC001461256440    0.1400
     34 H34        -1.0801    3.3435   46.6469 H       1  ZINC001461256440    0.0800
     35 H35        -0.2374    1.8469   47.1142 H       1  ZINC001461256440    0.0800
     36 H36        -1.9300    1.7816   46.5670 H       1  ZINC001461256440    0.0700
     37 H37         0.2427    2.6856   49.6598 H       1  ZINC001461256440    0.1800
     38 H38        -0.8888    2.2425   52.5748 H       1  ZINC001461256440    0.4100
     39 H39         0.0839    3.7839   54.2428 H       1  ZINC001461256440    0.1000
     40 H40        -0.5347    5.4528   54.2291 H       1  ZINC001461256440    0.1000
     41 H41        -2.8318    4.5207   54.7453 H       1  ZINC001461256440    0.0800
     42 H42        -2.0753    2.9227   54.9512 H       1  ZINC001461256440    0.0800
     43 H43        -0.5077    4.0281   56.6490 H       1  ZINC001461256440    0.0700
     44 H44        -1.5759    5.4499   56.5736 H       1  ZINC001461256440    0.0700
     45 H45        -2.4099    2.6137   57.3324 H       1  ZINC001461256440    0.1100
     46 H46        -2.2307    3.9878   58.4495 H       1  ZINC001461256440    0.1100
     47 H47        -7.1973    2.3027   58.2709 H       1  ZINC001461256440    0.0600
     48 H48        -8.2711    3.0165   57.0436 H       1  ZINC001461256440    0.0700
     49 H49        -7.0554    1.8066   56.5674 H       1  ZINC001461256440    0.0800
     50 H50        -5.8200    5.7239   57.7648 H       1  ZINC001461256440    0.0700
     51 H51        -7.5495    5.3040   57.7429 H       1  ZINC001461256440    0.0800
     52 H52        -6.4759    4.5902   58.9702 H       1  ZINC001461256440    0.0700
     53 H53        -6.1347    3.3979   54.8754 H       1  ZINC001461256440    0.0800
     54 H54        -7.3502    4.6077   55.3518 H       1  ZINC001461256440    0.0700
     55 H55        -5.6207    5.0276   55.3736 H       1  ZINC001461256440    0.0600
@<TRIPOS>BOND
     1     1     2    1
     2     1    27    1
     3     1    28    1
     4     1    29    1
     5     2     3    1
     6     2    30    1
     7     2    31    1
     8     3     4    1
     9     4     5    2
    10     4     6    1
    11     6     7    1
    12     6    32    1
    13     6    33    1
    14     7    12    1
    15     7     8    1
    16     8     9    2
    17     9    10    1
    18     9    11    1
    19    10    34    1
    20    10    35    1
    21    10    36    1
    22    11    12    2
    23    11    37    1
    24    12    13    1
    25    13    14   am
    26    13    38    1
    27    14    15    2
    28    14    16    1
    29    16    17    1
    30    16    39    1
    31    16    40    1
    32    17    18    1
    33    17    41    1
    34    17    42    1
    35    18    19    1
    36    18    43    1
    37    18    44    1
    38    19    20    1
    39    19    45    1
    40    19    46    1
    41    20    21    2
    42    20    22    1
    43    22    23    1
    44    23    24    1
    45    23    25    1
    46    23    26    1
    47    24    47    1
    48    24    48    1
    49    24    49    1
    50    25    50    1
    51    25    51    1
    52    25    52    1
    53    26    53    1
    54    26    54    1
    55    26    55    1
@<TRIPOS>SUBSTRUCTURE
     1 ZINC001461256440        1 TEMP              0 ****  ****    0 ROOT


##########                                Name:     oleObject27.pdb
##########                DOCK_Rotatable_Bonds:                   9
##########                         Heavy_Atoms:                  35
##########                    Molecular_Weight:             513.466
##########                DOCK_Rotatable_Bonds:                   9
##########                       Formal_Charge:         0.000199873
##########                     HBond_Acceptors:                   8
##########                        HBond_Donors:                   1
##########                         Heavy_Atoms:                  35
##########                          Grid_Score:          -35.060284
##########                     Grid_vdw_energy:          -35.041695
##########                      Grid_es_energy:           -0.018588
##########           Internal_energy_repulsive:           11.138196

@<TRIPOS>MOLECULE
oleObject27.pdb
 65 68 1 0 0
SMALL
NO_CHARGES


@<TRIPOS>ATOM
      1 C          -9.4664    0.1517   58.7386 C.ar    1  UNL        -0.0620
      2 C         -10.1282   -0.9672   58.2126 C.ar    1  UNL        -0.0590
      3 C         -10.5663   -0.9809   56.8740 C.ar    1  UNL        -0.0456
      4 C         -10.3298    0.1453   56.0468 C.ar    1  UNL        -0.0187
      5 C          -9.6720    1.2689   56.5940 C.ar    1  UNL        -0.0565
      6 C          -9.2412    1.2723   57.9288 C.ar    1  UNL        -0.0619
      7 C         -10.7919    0.1657   54.5811 C.3     1  UNL         0.0921
      8 C         -12.2042    0.7352   54.4148 C.ar    1  UNL         0.0681
      9 C         -13.1060    0.2437   53.4378 C.ar    1  UNL        -0.0272
     10 C         -14.3802    0.8351   53.3474 C.ar    1  UNL        -0.0559
     11 C         -14.7080    1.8886   54.2131 C.ar    1  UNL        -0.0435
     12 C         -13.7472    2.3219   55.1390 C.ar    1  UNL         0.0272
     13 N         -12.5262    1.7629   55.2338 N.ar    1  UNL        -0.2587
     14 C         -12.7369   -0.8856   52.4827 C.3     1  UNL        -0.0379
     15 N          -9.8520    0.8662   53.6940 N.am    1  UNL        -0.2865
     16 C          -8.9721    0.2268   52.8393 C.2     1  UNL         0.3014
     17 O          -8.9144   -0.9895   52.7675 O.2     1  UNL        -0.2541
     18 N          -8.1584    1.0658   52.0756 N.am    1  UNL        -0.2833
     19 C          -8.2318    2.5492   52.1736 C.3     1  UNL         0.0284
     20 C          -7.5410    3.3155   51.0193 C.3     1  UNL         0.0142
     21 N          -6.2044    2.7806   50.7066 N.4     1  UNL        -0.2979
     22 C          -6.3252    1.3601   50.3234 C.3     1  UNL         0.0142
     23 C          -6.9359    0.5002   51.4538 C.3     1  UNL         0.0284
     24 C          -5.1981    3.0834   51.7528 C.3     1  UNL         0.0223
     25 C          -3.7648    2.6784   51.3540 C.3     1  UNL         0.0661
     26 O          -3.3173    3.5994   50.3438 O.3     1  UNL        -0.3432
     27 C          -2.4279    3.2627   49.3417 C.ar    1  UNL         0.0937
     28 C          -2.7571    2.3366   48.3287 C.ar    1  UNL        -0.0288
     29 C          -1.8228    2.0224   47.3277 C.ar    1  UNL        -0.0408
     30 C          -0.5570    2.6291   47.3315 C.ar    1  UNL         0.0422
     31 C          -0.2222    3.5513   48.3353 C.ar    1  UNL        -0.0221
     32 C          -1.1543    3.8677   49.3375 C.ar    1  UNL         0.0723
     33 CL         -0.7044    5.0237   50.5773 Cl      1  UNL        -0.0814
     34 CL          0.6049    2.2354   46.0827 Cl      1  UNL        -0.0843
     35 C         -11.2955   -2.2167   56.3574 C.3     1  UNL        -0.0394
     36 H          -9.1343    0.1517   59.7728 H       1  UNL         0.0623
     37 H         -10.3031   -1.8278   58.8520 H       1  UNL         0.0626
     38 H          -9.4968    2.1519   55.9867 H       1  UNL         0.0627
     39 H          -8.7356    2.1438   58.3344 H       1  UNL         0.0623
     40 H         -10.8037   -0.8736   54.2399 H       1  UNL         0.0625
     41 H         -15.1039    0.4876   52.6155 H       1  UNL         0.0627
     42 H         -15.6833    2.3637   54.1644 H       1  UNL         0.0639
     43 H         -13.9602    3.1405   55.8254 H       1  UNL         0.0840
     44 H         -11.8005   -0.6666   51.9543 H       1  UNL         0.0280
     45 H         -13.5118   -1.0416   51.7217 H       1  UNL         0.0280
     46 H         -12.6103   -1.8324   53.0220 H       1  UNL         0.0280
     47 H          -9.8185    1.8748   53.7422 H       1  UNL         0.1521
     48 H          -7.7717    2.8484   53.1241 H       1  UNL         0.0484
     49 H          -9.2808    2.8691   52.1966 H       1  UNL         0.0484
     50 H          -7.4766    4.3811   51.2742 H       1  UNL         0.0447
     51 H          -8.1744    3.2338   50.1263 H       1  UNL         0.0447
     52 H          -5.3546    0.9448   50.0281 H       1  UNL         0.0447
     53 H          -6.9815    1.2851   49.4466 H       1  UNL         0.0447
     54 H          -6.1864    0.3648   52.2438 H       1  UNL         0.0484
     55 H          -7.1631   -0.4921   51.0436 H       1  UNL         0.0484
     56 H          -5.4579    2.5819   52.6936 H       1  UNL         0.0455
     57 H          -5.1987    4.1637   51.9472 H       1  UNL         0.0455
     58 H          -3.7696    1.6537   50.9609 H       1  UNL         0.0586
     59 H          -3.1014    2.7278   52.2260 H       1  UNL         0.0586
     60 H          -3.7298    1.8562   48.3059 H       1  UNL         0.0652
     61 H          -2.0811    1.3089   46.5502 H       1  UNL         0.0639
     62 H           0.7577    4.0204   48.3374 H       1  UNL         0.0655
     63 H         -11.4782   -2.9444   57.1578 H       1  UNL         0.0280
     64 H         -10.7094   -2.7247   55.5815 H       1  UNL         0.0280
     65 H         -12.2711   -1.9516   55.9319 H       1  UNL         0.0280
@<TRIPOS>BOND
     1     1     2   ar
     2     1     6   ar
     3     1    36    1
     4     2     3   ar
     5     2    37    1
     6     3     4   ar
     7     3    35    1
     8     4     5   ar
     9     4     7    1
    10     5     6   ar
    11     5    38    1
    12     6    39    1
    13     7     8    1
    14     7    15    1
    15     7    40    1
    16     8     9   ar
    17     8    13   ar
    18     9    10   ar
    19     9    14    1
    20    10    11   ar
    21    10    41    1
    22    11    12   ar
    23    11    42    1
    24    12    13   ar
    25    12    43    1
    26    14    44    1
    27    14    45    1
    28    14    46    1
    29    15    16   am
    30    15    47    1
    31    16    17    2
    32    16    18   am
    33    18    19    1
    34    18    23    1
    35    19    20    1
    36    19    48    1
    37    19    49    1
    38    20    21    1
    39    20    50    1
    40    20    51    1
    41    21    22    1
    42    21    24    1
    43    22    23    1
    44    22    52    1
    45    22    53    1
    46    23    54    1
    47    23    55    1
    48    24    25    1
    49    24    56    1
    50    24    57    1
    51    25    26    1
    52    25    58    1
    53    25    59    1
    54    26    27    1
    55    27    28   ar
    56    27    32   ar
    57    28    29   ar
    58    28    60    1
    59    29    30   ar
    60    29    61    1
    61    30    31   ar
    62    30    34    1
    63    31    32   ar
    64    31    62    1
    65    32    33    1
    66    35    63    1
    67    35    64    1
    68    35    65    1
@<TRIPOS>SUBSTRUCTURE
     1 UNL         1 TEMP              0 ****  ****    0 ROOT


##########                                Name:    ZINC000790205345
##########                DOCK_Rotatable_Bonds:                   7
##########                         Heavy_Atoms:                  28
##########                    Molecular_Weight:             382.459
##########                DOCK_Rotatable_Bonds:                   7
##########                       Formal_Charge:          -0.0299997
##########                     HBond_Acceptors:                   6
##########                        HBond_Donors:                   0
##########                         Heavy_Atoms:                  28
##########                          Grid_Score:          -34.869904
##########                     Grid_vdw_energy:          -33.538044
##########                      Grid_es_energy:           -1.331859
##########           Internal_energy_repulsive:           30.812023

@<TRIPOS>MOLECULE
ZINC000790205345
 54 56 1 0 0
SMALL
USER_CHARGES


@<TRIPOS>ATOM
      1 C1         -6.9201    3.1214   53.7377 C.3     1  ZINC000790205345   -0.1100
      2 C2         -6.0359    2.7866   52.5642 C.ar    1  ZINC000790205345   -0.1300
      3 C3         -6.3854    1.7593   51.7078 C.ar    1  ZINC000790205345   -0.0800
      4 C4         -5.5767    1.4506   50.6309 C.ar    1  ZINC000790205345   -0.2100
      5 C5         -4.4132    2.1726   50.4094 C.ar    1  ZINC000790205345    0.1300
      6 O6         -3.6163    1.8714   49.3506 O.3     1  ZINC000790205345   -0.2900
      7 C7         -2.4110    2.6263   49.2105 C.3     1  ZINC000790205345    0.0400
      8 C8         -1.7695    2.3067   47.8848 C.2     1  ZINC000790205345    0.5200
      9 O9         -2.2250    1.4252   47.1875 O.2     1  ZINC000790205345   -0.5100
     10 N10        -0.6894    3.0005   47.4741 N.am    1  ZINC000790205345   -0.6100
     11 C11        -0.0669    2.6909   46.1846 C.3     1  ZINC000790205345    0.0700
     12 C12        -0.1380    4.0641   48.3171 C.3     1  ZINC000790205345    0.1800
     13 H13        -0.9491    4.6897   48.6898 H       1  ZINC000790205345    0.1200
     14 C14         0.8280    4.9183   47.4937 C.3     1  ZINC000790205345   -0.1600
     15 C15         0.5993    3.4519   49.4803 C.ar    1  ZINC000790205345   -0.0700
     16 C16         0.6803    4.1318   50.6814 C.ar    1  ZINC000790205345   -0.1300
     17 C17         1.3564    3.5736   51.7510 C.ar    1  ZINC000790205345   -0.0900
     18 C18         1.9524    2.3346   51.6223 C.ar    1  ZINC000790205345   -0.1500
     19 C19         1.8725    1.6490   50.4172 C.ar    1  ZINC000790205345    0.1800
     20 N20         2.4752    0.3929   50.2837 N.am    1  ZINC000790205345   -0.5700
     21 C21         1.8675   -0.7838   49.6438 C.3     1  ZINC000790205345    0.0600
     22 C22         2.9504   -1.8723   49.7734 C.3     1  ZINC000790205345    0.0400
     23 O23         4.0434   -1.2019   50.4655 O.3     1  ZINC000790205345   -0.3200
     24 C24         3.7024    0.0679   50.7128 C.2     1  ZINC000790205345    0.6400
     25 O25         4.4354    0.8525   51.2818 O.2     1  ZINC000790205345   -0.5000
     26 C26         1.1885    2.2098   49.3469 C.ar    1  ZINC000790205345   -0.1400
     27 C27        -4.0646    3.2034   51.2704 C.ar    1  ZINC000790205345   -0.1500
     28 C28        -4.8792    3.5115   52.3425 C.ar    1  ZINC000790205345   -0.0500
     29 C29        -4.5016    4.6311   53.2778 C.3     1  ZINC000790205345   -0.1200
     30 H30        -7.6596    3.8631   53.4355 H       1  ZINC000790205345    0.0700
     31 H31        -7.4284    2.2194   54.0786 H       1  ZINC000790205345    0.0600
     32 H32        -6.3119    3.5239   54.5477 H       1  ZINC000790205345    0.0700
     33 H33        -7.2912    1.1971   51.8809 H       1  ZINC000790205345    0.1300
     34 H34        -5.8500    0.6476   49.9624 H       1  ZINC000790205345    0.1300
     35 H35        -2.6417    3.6907   49.2552 H       1  ZINC000790205345    0.1000
     36 H36        -1.7251    2.3689   50.0175 H       1  ZINC000790205345    0.0900
     37 H37        -0.5927    3.2212   45.3907 H       1  ZINC000790205345    0.0600
     38 H38         0.9771    3.0037   46.2008 H       1  ZINC000790205345    0.0800
     39 H39        -0.1218    1.6176   46.0029 H       1  ZINC000790205345    0.0700
     40 H40         1.6391    4.2928   47.1211 H       1  ZINC000790205345    0.0600
     41 H41         0.2948    5.3612   46.6525 H       1  ZINC000790205345    0.0700
     42 H42         1.2383    5.7098   48.1210 H       1  ZINC000790205345    0.0800
     43 H43         0.2149    5.1009   50.7846 H       1  ZINC000790205345    0.1300
     44 H44         1.4185    4.1074   52.6878 H       1  ZINC000790205345    0.1300
     45 H45         2.4806    1.8994   52.4579 H       1  ZINC000790205345    0.1300
     46 H46         0.9610   -1.0809   50.1710 H       1  ZINC000790205345    0.1000
     47 H47         1.6524   -0.5808   48.5947 H       1  ZINC000790205345    0.1000
     48 H48         2.5809   -2.7104   50.3644 H       1  ZINC000790205345    0.1100
     49 H49         3.2721   -2.2104   48.7884 H       1  ZINC000790205345    0.1100
     50 H50         1.1243    1.6789   48.4085 H       1  ZINC000790205345    0.1600
     51 H51        -3.1591    3.7669   51.1003 H       1  ZINC000790205345    0.1300
     52 H52        -4.9304    5.5661   52.9172 H       1  ZINC000790205345    0.0700
     53 H53        -4.8850    4.4164   54.2752 H       1  ZINC000790205345    0.0700
     54 H54        -3.4159    4.7208   53.3174 H       1  ZINC000790205345    0.0700
@<TRIPOS>BOND
     1     1     2    1
     2     1    30    1
     3     1    31    1
     4     1    32    1
     5     2    28   ar
     6     2     3   ar
     7     3     4   ar
     8     3    33    1
     9     4     5   ar
    10     4    34    1
    11     5     6    1
    12     5    27   ar
    13     6     7    1
    14     7     8    1
    15     7    35    1
    16     7    36    1
    17     8     9    2
    18     8    10   am
    19    10    11    1
    20    10    12    1
    21    11    37    1
    22    11    38    1
    23    11    39    1
    24    12    13    1
    25    12    14    1
    26    12    15    1
    27    14    40    1
    28    14    41    1
    29    14    42    1
    30    15    26   ar
    31    15    16   ar
    32    16    17   ar
    33    16    43    1
    34    17    18   ar
    35    17    44    1
    36    18    19   ar
    37    18    45    1
    38    19    20    1
    39    19    26   ar
    40    20    24   am
    41    20    21    1
    42    21    22    1
    43    21    46    1
    44    21    47    1
    45    22    23    1
    46    22    48    1
    47    22    49    1
    48    23    24    1
    49    24    25    2
    50    26    50    1
    51    27    28   ar
    52    27    51    1
    53    28    29    1
    54    29    52    1
    55    29    53    1
    56    29    54    1
@<TRIPOS>SUBSTRUCTURE
     1 ZINC000790205345        1 TEMP              0 ****  ****    0 ROOT


##########                                Name:    ZINC001169875900
##########                DOCK_Rotatable_Bonds:                   9
##########                         Heavy_Atoms:                  24
##########                    Molecular_Weight:             329.399
##########                DOCK_Rotatable_Bonds:                   9
##########                       Formal_Charge:          -0.0500002
##########                     HBond_Acceptors:                   6
##########                        HBond_Donors:                   1
##########                         Heavy_Atoms:                  24
##########                          Grid_Score:          -34.667988
##########                     Grid_vdw_energy:          -34.117626
##########                      Grid_es_energy:           -0.550360
##########           Internal_energy_repulsive:            9.806629

@<TRIPOS>MOLECULE
ZINC001169875900
 47 48 1 0 0
SMALL
USER_CHARGES


@<TRIPOS>ATOM
      1 C1        -11.9705   -2.8996   53.8649 C.3     1  ZINC001169875900   -0.1500
      2 C2        -12.2399   -1.5066   53.2924 C.3     1  ZINC001169875900   -0.1300
      3 C3        -11.0581   -1.0758   52.4214 C.3     1  ZINC001169875900    0.0700
      4 O4         -9.9778   -0.6570   53.2578 O.3     1  ZINC001169875900   -0.3100
      5 C5         -8.8528   -0.2171   52.6376 C.ar    1  ZINC001169875900    0.2700
      6 N6         -7.9468   -1.0900   52.2318 N.ar    1  ZINC001169875900   -0.5000
      7 C7         -6.8359   -0.7083   51.6304 C.ar    1  ZINC001169875900    0.0600
      8 C8         -6.5824    0.6348   51.3963 C.ar    1  ZINC001169875900    0.1400
      9 N9         -5.4016    1.0327   50.7583 N.pl3   1  ZINC001169875900   -0.7400
     10 C10        -5.0790    2.4565   50.6365 C.3     1  ZINC001169875900    0.1800
     11 C11        -3.5914    2.6211   50.4599 C.ar    1  ZINC001169875900    0.1000
     12 C12        -2.8099    2.9807   51.5464 C.ar    1  ZINC001169875900   -0.1200
     13 C13        -1.4419    3.1311   51.3795 C.ar    1  ZINC001169875900   -0.0800
     14 C14        -0.9017    2.9145   50.1218 C.ar    1  ZINC001169875900   -0.1000
     15 C15        -1.7477    2.5551   49.0745 C.ar    1  ZINC001169875900    0.0900
     16 C16        -1.1862    2.3202   47.7246 C.2     1  ZINC001169875900    0.5200
     17 O17        -1.8969    1.8936   46.8372 O.2     1  ZINC001169875900   -0.5000
     18 O18         0.1126    2.5797   47.4811 O.3     1  ZINC001169875900   -0.3300
     19 C19         0.6436    2.1428   46.2023 C.3     1  ZINC001169875900    0.0600
     20 C20         0.4108    3.2329   45.1541 C.3     1  ZINC001169875900   -0.1500
     21 N21        -3.0521    2.4165   49.2782 N.ar    1  ZINC001169875900   -0.4200
     22 C22        -7.5181    1.5835   51.8051 C.ar    1  ZINC001169875900   -0.1200
     23 C23        -8.6703    1.1443   52.4323 C.ar    1  ZINC001169875900   -0.1000
     24 C24        -9.7119    2.1315   52.8925 C.3     1  ZINC001169875900   -0.1000
     25 H25       -11.0638   -2.8749   54.4693 H       1  ZINC001169875900    0.0600
     26 H26       -12.8125   -3.2065   54.4854 H       1  ZINC001169875900    0.0600
     27 H27       -11.8433   -3.6099   53.0480 H       1  ZINC001169875900    0.0600
     28 H28       -12.3671   -0.7963   54.1094 H       1  ZINC001169875900    0.0700
     29 H29       -13.1467   -1.5314   52.6879 H       1  ZINC001169875900    0.0700
     30 H30       -11.3622   -0.2490   51.7795 H       1  ZINC001169875900    0.0600
     31 H31       -10.7361   -1.9150   51.8049 H       1  ZINC001169875900    0.0600
     32 H32        -6.1161   -1.4501   51.3174 H       1  ZINC001169875900    0.1500
     33 H33        -4.7972    0.3658   50.3969 H       1  ZINC001169875900    0.4000
     34 H34        -5.5958    2.8736   49.7722 H       1  ZINC001169875900    0.0800
     35 H35        -5.3979    2.9798   51.5379 H       1  ZINC001169875900    0.0800
     36 H36        -3.2623    3.1425   52.5136 H       1  ZINC001169875900    0.1500
     37 H37        -0.8116    3.4104   52.2108 H       1  ZINC001169875900    0.1500
     38 H38         0.1599    3.0231   49.9556 H       1  ZINC001169875900    0.1500
     39 H39         1.7127    1.9536   46.2983 H       1  ZINC001169875900    0.0700
     40 H40         0.1390    1.2276   45.8929 H       1  ZINC001169875900    0.0700
     41 H41        -0.6583    3.4221   45.0581 H       1  ZINC001169875900    0.0700
     42 H42         0.9155    4.1481   45.4635 H       1  ZINC001169875900    0.0700
     43 H43         0.8095    2.9049   44.1941 H       1  ZINC001169875900    0.0800
     44 H44        -7.3475    2.6366   51.6365 H       1  ZINC001169875900    0.1400
     45 H45       -10.4323    2.2993   52.0919 H       1  ZINC001169875900    0.0700
     46 H46        -9.2298    3.0743   53.1509 H       1  ZINC001169875900    0.0700
     47 H47       -10.2268    1.7349   53.7675 H       1  ZINC001169875900    0.0700
@<TRIPOS>BOND
     1     1     2    1
     2     1    25    1
     3     1    26    1
     4     1    27    1
     5     2     3    1
     6     2    28    1
     7     2    29    1
     8     3     4    1
     9     3    30    1
    10     3    31    1
    11     4     5    1
    12     5    23   ar
    13     5     6   ar
    14     6     7   ar
    15     7     8   ar
    16     7    32    1
    17     8     9    1
    18     8    22   ar
    19     9    10    1
    20     9    33    1
    21    10    11    1
    22    10    34    1
    23    10    35    1
    24    11    21   ar
    25    11    12   ar
    26    12    13   ar
    27    12    36    1
    28    13    14   ar
    29    13    37    1
    30    14    15   ar
    31    14    38    1
    32    15    16    1
    33    15    21   ar
    34    16    17    2
    35    16    18    1
    36    18    19    1
    37    19    20    1
    38    19    39    1
    39    19    40    1
    40    20    41    1
    41    20    42    1
    42    20    43    1
    43    22    23   ar
    44    22    44    1
    45    23    24    1
    46    24    45    1
    47    24    46    1
    48    24    47    1
@<TRIPOS>SUBSTRUCTURE
     1 ZINC001169875900        1 TEMP              0 ****  ****    0 ROOT


##########                                Name:    ZINC000375302598
##########                DOCK_Rotatable_Bonds:                   8
##########                         Heavy_Atoms:                  27
##########                    Molecular_Weight:             368.479
##########                DOCK_Rotatable_Bonds:                   8
##########                       Formal_Charge:               -0.02
##########                     HBond_Acceptors:                   6
##########                        HBond_Donors:                   1
##########                         Heavy_Atoms:                  27
##########                          Grid_Score:          -34.593876
##########                     Grid_vdw_energy:          -34.809364
##########                      Grid_es_energy:            0.215489
##########           Internal_energy_repulsive:            8.341711

@<TRIPOS>MOLECULE
ZINC000375302598
 55 58 1 0 0
SMALL
USER_CHARGES


@<TRIPOS>ATOM
      1 C1          2.7045   -2.1040   49.9102 C.3     1  ZINC000375302598   -0.1500
      2 C2          3.4052   -0.8235   49.4515 C.3     1  ZINC000375302598   -0.0300
      3 C3          2.6060   -0.1816   48.3469 C.2     1  ZINC000375302598    0.1800
      4 N4          1.5766    0.6178   48.4907 N.2     1  ZINC000375302598   -0.4700
      5 C5          1.1911    0.9398   47.2431 C.2     1  ZINC000375302598    0.1800
      6 C6          0.0429    1.8414   46.8690 C.3     1  ZINC000375302598    0.1500
      7 N7         -0.4919    2.4805   48.0788 N.3     1  ZINC000375302598   -0.5300
      8 C8         -0.0953    3.8928   48.1471 C.3     1  ZINC000375302598    0.0500
      9 C9         -0.5443    4.4859   49.4845 C.3     1  ZINC000375302598   -0.1100
     10 C10        -2.0649    4.3569   49.6097 C.3     1  ZINC000375302598   -0.1300
     11 C11        -2.4559    2.8815   49.4868 C.3     1  ZINC000375302598    0.1500
     12 H12        -2.0065    2.3167   50.3036 H       1  ZINC000375302598    0.1000
     13 N13        -3.9140    2.7552   49.5491 N.am    1  ZINC000375302598   -0.7300
     14 C14        -4.5423    2.7786   50.7413 C.2     1  ZINC000375302598    0.5200
     15 O15        -3.9002    2.9028   51.7627 O.2     1  ZINC000375302598   -0.5300
     16 C16        -6.0424    2.6504   50.8052 C.3     1  ZINC000375302598   -0.1100
     17 C17        -6.4345    1.8706   52.0618 C.3     1  ZINC000375302598   -0.1200
     18 H18        -5.8930    2.1380   52.9692 H       1  ZINC000375302598    0.1200
     19 C19        -6.8391    0.4056   51.8864 C.3     1  ZINC000375302598   -0.1700
     20 C20        -7.9009    1.4598   52.2094 C.3     1  ZINC000375302598   -0.1100
     21 H21        -8.5863    1.7448   51.4112 H       1  ZINC000375302598    0.1100
     22 C22        -8.4864    1.4551   53.5980 C.ar    1  ZINC000375302598   -0.0500
     23 C23        -7.9617    2.2838   54.5722 C.ar    1  ZINC000375302598   -0.1200
     24 C24        -8.4988    2.2795   55.8459 C.ar    1  ZINC000375302598   -0.1200
     25 C25        -9.5608    1.4469   56.1454 C.ar    1  ZINC000375302598   -0.1300
     26 C26       -10.0860    0.6188   55.1710 C.ar    1  ZINC000375302598   -0.1200
     27 C27        -9.5517    0.6262   53.8961 C.ar    1  ZINC000375302598   -0.1100
     28 C28        -1.9515    2.3349   48.1494 C.3     1  ZINC000375302598    0.0500
     29 N29         1.9909    0.3311   46.4194 N.2     1  ZINC000375302598   -0.3800
     30 O30         2.8145   -0.3139   47.0334 O.3     1  ZINC000375302598    0.0800
     31 H31         2.6245   -2.7950   49.0710 H       1  ZINC000375302598    0.0600
     32 H32         3.2826   -2.5682   50.7092 H       1  ZINC000375302598    0.0800
     33 H33         1.7073   -1.8610   50.2772 H       1  ZINC000375302598    0.0600
     34 H34         3.4852   -0.1325   50.2907 H       1  ZINC000375302598    0.1100
     35 H35         4.4024   -1.0665   49.0845 H       1  ZINC000375302598    0.1000
     36 H36         0.3931    2.6079   46.1777 H       1  ZINC000375302598    0.0700
     37 H37        -0.7408    1.2527   46.3923 H       1  ZINC000375302598    0.1100
     38 H38         0.9886    3.9701   48.0611 H       1  ZINC000375302598    0.0800
     39 H39        -0.5643    4.4416   47.3306 H       1  ZINC000375302598    0.0400
     40 H40        -0.0647    3.9463   50.3012 H       1  ZINC000375302598    0.0700
     41 H41        -0.2634    5.5383   49.5284 H       1  ZINC000375302598    0.0700
     42 H42        -2.3842    4.7389   50.5794 H       1  ZINC000375302598    0.0700
     43 H43        -2.5455    4.9285   48.8158 H       1  ZINC000375302598    0.0600
     44 H44        -4.4275    2.6548   48.7323 H       1  ZINC000375302598    0.4000
     45 H45        -6.4907    3.6434   50.8392 H       1  ZINC000375302598    0.1000
     46 H46        -6.3998    2.1204   49.9224 H       1  ZINC000375302598    0.1000
     47 H47        -6.8260   -0.0027   50.8759 H       1  ZINC000375302598    0.1000
     48 H48        -6.5642   -0.2908   52.6786 H       1  ZINC000375302598    0.1000
     49 H49        -7.1320    2.9344   54.3381 H       1  ZINC000375302598    0.1200
     50 H50        -8.0884    2.9264   56.6071 H       1  ZINC000375302598    0.1200
     51 H51        -9.9800    1.4430   57.1408 H       1  ZINC000375302598    0.1200
     52 H52       -10.9155   -0.0319   55.4051 H       1  ZINC000375302598    0.1200
     53 H53        -9.9621   -0.0207   53.1349 H       1  ZINC000375302598    0.1200
     54 H54        -2.4119    2.8911   47.3329 H       1  ZINC000375302598    0.0400
     55 H55        -2.2158    1.2808   48.0650 H       1  ZINC000375302598    0.0900
@<TRIPOS>BOND
     1     1     2    1
     2     1    31    1
     3     1    32    1
     4     1    33    1
     5     2     3    1
     6     2    34    1
     7     2    35    1
     8     3    30    1
     9     3     4    2
    10     4     5    1
    11     5     6    1
    12     5    29    2
    13     6     7    1
    14     6    36    1
    15     6    37    1
    16     7    28    1
    17     7     8    1
    18     8     9    1
    19     8    38    1
    20     8    39    1
    21     9    10    1
    22     9    40    1
    23     9    41    1
    24    10    11    1
    25    10    42    1
    26    10    43    1
    27    11    12    1
    28    11    13    1
    29    11    28    1
    30    13    14   am
    31    13    44    1
    32    14    15    2
    33    14    16    1
    34    16    17    1
    35    16    45    1
    36    16    46    1
    37    17    18    1
    38    17    20    1
    39    17    19    1
    40    19    20    1
    41    19    47    1
    42    19    48    1
    43    20    21    1
    44    20    22    1
    45    22    27   ar
    46    22    23   ar
    47    23    24   ar
    48    23    49    1
    49    24    25   ar
    50    24    50    1
    51    25    26   ar
    52    25    51    1
    53    26    27   ar
    54    26    52    1
    55    27    53    1
    56    28    54    1
    57    28    55    1
    58    29    30    1
@<TRIPOS>SUBSTRUCTURE
     1 ZINC000375302598        1 TEMP              0 ****  ****    0 ROOT


##########                                Name:    ZINC000599797189
##########                DOCK_Rotatable_Bonds:                  13
##########                         Heavy_Atoms:                  23
##########                    Molecular_Weight:             329.313
##########                DOCK_Rotatable_Bonds:                  13
##########                       Formal_Charge:          0.00999949
##########                     HBond_Acceptors:                  11
##########                        HBond_Donors:                   3
##########                         Heavy_Atoms:                  23
##########                          Grid_Score:          -34.586929
##########                     Grid_vdw_energy:          -34.492966
##########                      Grid_es_energy:           -0.093965
##########           Internal_energy_repulsive:           13.623536

@<TRIPOS>MOLECULE
ZINC000599797189
 42 42 1 0 0
SMALL
USER_CHARGES


@<TRIPOS>ATOM
      1 C1         -7.5322   -0.9369   52.1968 C.3     1  ZINC000599797189   -0.1500
      2 C2         -7.2320    0.5436   51.9539 C.3     1  ZINC000599797189    0.0600
      3 O3         -6.0383    0.6676   51.1366 O.3     1  ZINC000599797189   -0.3600
      4 C4         -5.8446    1.8413   50.5149 C.2     1  ZINC000599797189    0.4500
      5 O5         -6.3811    2.0591   49.4545 O.2     1  ZINC000599797189   -0.4800
      6 C6         -4.9579    2.8875   51.1396 C.3     1  ZINC000599797189    0.1500
      7 N7         -3.7502    3.0525   50.3270 N.pl3   1  ZINC000599797189   -0.3800
      8 C8         -2.9597    4.1378   50.2722 C.2     1  ZINC000599797189    0.2800
      9 N9         -1.9859    3.8923   49.4331 N.2     1  ZINC000599797189   -0.5100
     10 C10        -2.1205    2.6608   48.9320 C.2     1  ZINC000599797189    0.4700
     11 N11        -1.2620    2.0606   48.0050 N.am    1  ZINC000599797189   -0.6400
     12 C12         0.0300    1.8461   48.3234 C.2     1  ZINC000599797189    0.7100
     13 O13         0.4497    2.1759   49.4158 O.2     1  ZINC000599797189   -0.5300
     14 N14         0.8566    1.2663   47.4307 N.am    1  ZINC000599797189   -0.7300
     15 C15         2.2606    1.0317   47.7774 C.3     1  ZINC000599797189    0.1100
     16 C16         2.3542   -0.1328   48.7653 C.3     1  ZINC000599797189    0.1100
     17 H17         1.9311    0.1687   49.7235 H       1  ZINC000599797189    0.1200
     18 O18         1.6261   -1.2511   48.2538 O.3     1  ZINC000599797189   -0.5400
     19 C19         3.8212   -0.5234   48.9559 C.3     1  ZINC000599797189   -0.1500
     20 C20         3.9449   -1.4499   50.1379 C.2     1  ZINC000599797189    0.4600
     21 O21         3.0090   -2.1409   50.4644 O.2     1  ZINC000599797189   -0.4900
     22 O22         5.0948   -1.5076   50.8279 O.3     1  ZINC000599797189   -0.3600
     23 C23         6.1771   -0.6503   50.3782 C.3     1  ZINC000599797189    0.0400
     24 N24        -3.1870    2.1056   49.4562 N.2     1  ZINC000599797189   -0.3200
     25 H25        -8.4283   -1.0300   52.8104 H       1  ZINC000599797189    0.0800
     26 H26        -7.6925   -1.4366   51.2415 H       1  ZINC000599797189    0.0700
     27 H27        -6.6898   -1.3988   52.7116 H       1  ZINC000599797189    0.0700
     28 H28        -8.0744    1.0055   51.4391 H       1  ZINC000599797189    0.0700
     29 H29        -7.0717    1.0433   52.9093 H       1  ZINC000599797189    0.0700
     30 H30        -5.4941    3.8351   51.1903 H       1  ZINC000599797189    0.1500
     31 H31        -4.6788    2.5738   52.1455 H       1  ZINC000599797189    0.1300
     32 H32        -3.1033    5.0544   50.8250 H       1  ZINC000599797189    0.2300
     33 H33        -1.5966    1.7986   47.1330 H       1  ZINC000599797189    0.4200
     34 H34         0.5221    1.0043   46.5587 H       1  ZINC000599797189    0.4000
     35 H35         2.8219    0.7888   46.8751 H       1  ZINC000599797189    0.0800
     36 H36         2.6771    1.9296   48.2336 H       1  ZINC000599797189    0.0800
     37 H37         1.6911   -2.0461   48.8005 H       1  ZINC000599797189    0.3800
     38 H38         4.1823   -1.0277   48.0596 H       1  ZINC000599797189    0.1200
     39 H39         4.4157    0.3729   49.1330 H       1  ZINC000599797189    0.1200
     40 H40         6.4389   -0.9042   49.3511 H       1  ZINC000599797189    0.0600
     41 H41         5.8592    0.3912   50.4253 H       1  ZINC000599797189    0.0600
     42 H42         7.0457   -0.7946   51.0209 H       1  ZINC000599797189    0.1000
@<TRIPOS>BOND
     1     1     2    1
     2     1    25    1
     3     1    26    1
     4     1    27    1
     5     2     3    1
     6     2    28    1
     7     2    29    1
     8     3     4    1
     9     4     5    2
    10     4     6    1
    11     6     7    1
    12     6    30    1
    13     6    31    1
    14     7    24    1
    15     7     8    1
    16     8     9    2
    17     8    32    1
    18     9    10    1
    19    10    11    1
    20    10    24    2
    21    11    12   am
    22    11    33    1
    23    12    13    2
    24    12    14   am
    25    14    15    1
    26    14    34    1
    27    15    16    1
    28    15    35    1
    29    15    36    1
    30    16    17    1
    31    16    18    1
    32    16    19    1
    33    18    37    1
    34    19    20    1
    35    19    38    1
    36    19    39    1
    37    20    21    2
    38    20    22    1
    39    22    23    1
    40    23    40    1
    41    23    41    1
    42    23    42    1
@<TRIPOS>SUBSTRUCTURE
     1 ZINC000599797189        1 TEMP              0 ****  ****    0 ROOT


##########                                Name:    ZINC000013809319
##########                DOCK_Rotatable_Bonds:                  10
##########                         Heavy_Atoms:                  30
##########                    Molecular_Weight:             407.469
##########                DOCK_Rotatable_Bonds:                  10
##########                       Formal_Charge:         -0.00999978
##########                     HBond_Acceptors:                   7
##########                        HBond_Donors:                   1
##########                         Heavy_Atoms:                  30
##########                          Grid_Score:          -34.574284
##########                     Grid_vdw_energy:          -34.493507
##########                      Grid_es_energy:           -0.080776
##########           Internal_energy_repulsive:           14.387857

@<TRIPOS>MOLECULE
ZINC000013809319
 55 57 1 0 0
SMALL
USER_CHARGES


@<TRIPOS>ATOM
      1 C1        -11.9589   -1.3985   53.3350 C.3     1  ZINC000013809319   -0.1500
      2 C2        -11.3460   -0.1010   52.8041 C.3     1  ZINC000013809319    0.0500
      3 O3        -10.2815    0.3098   53.6642 O.3     1  ZINC000013809319   -0.3100
      4 C4         -9.1803    0.8399   53.0723 C.ar    1  ZINC000013809319    0.1500
      5 C5         -8.1859    0.0025   52.5825 C.ar    1  ZINC000013809319   -0.2200
      6 C6         -7.0674    0.5370   51.9809 C.ar    1  ZINC000013809319   -0.0300
      7 C7         -6.9342    1.9215   51.8638 C.ar    1  ZINC000013809319   -0.1100
      8 C8         -5.7345    2.4993   51.2178 C.2     1  ZINC000013809319    0.2300
      9 C9         -5.2281    1.9376   50.0569 C.2     1  ZINC000013809319   -0.2900
     10 C10        -4.0873    2.5182   49.4762 C.2     1  ZINC000013809319    0.5300
     11 O11        -3.6069    2.0574   48.4534 O.2     1  ZINC000013809319   -0.5400
     12 N12        -3.5340    3.5956   50.0714 N.am    1  ZINC000013809319   -0.5100
     13 C13        -2.3449    4.2206   49.4870 C.3     1  ZINC000013809319    0.0700
     14 C14        -1.1089    3.5336   50.0080 C.2     1  ZINC000013809319    0.5000
     15 O15        -0.9774    3.3427   51.1984 O.2     1  ZINC000013809319   -0.5200
     16 N16        -0.1496    3.1314   49.1510 N.am    1  ZINC000013809319   -0.7200
     17 C17         1.0512    2.4619   49.6573 C.3     1  ZINC000013809319    0.1300
     18 C18         1.6695    1.6134   48.5444 C.3     1  ZINC000013809319   -0.0800
     19 C19         2.3165    0.3919   49.1447 C.ar    1  ZINC000013809319   -0.1200
     20 C20         1.9332   -0.8683   48.7289 C.ar    1  ZINC000013809319   -0.0800
     21 C21         2.5262   -1.9895   49.2799 C.ar    1  ZINC000013809319   -0.1500
     22 C22         3.5041   -1.8524   50.2473 C.ar    1  ZINC000013809319   -0.0800
     23 C23         3.8914   -0.5940   50.6664 C.ar    1  ZINC000013809319   -0.2100
     24 C24         3.3019    0.5324   50.1115 C.ar    1  ZINC000013809319    0.1300
     25 O25         3.6810    1.7712   50.5219 O.3     1  ZINC000013809319   -0.3100
     26 C26         4.6390    1.8390   51.5801 C.3     1  ZINC000013809319    0.0300
     27 C27        -4.0703    4.0997   51.2009 C.2     1  ZINC000013809319    0.3900
     28 N28        -5.1313    3.5765   51.7500 N.2     1  ZINC000013809319   -0.5300
     29 C29        -7.9354    2.7598   52.3570 C.ar    1  ZINC000013809319   -0.0500
     30 C30        -9.0536    2.2183   52.9527 C.ar    1  ZINC000013809319   -0.1600
     31 H31       -11.1951   -2.1757   53.3643 H       1  ZINC000013809319    0.0700
     32 H32       -12.3471   -1.2324   54.3398 H       1  ZINC000013809319    0.0700
     33 H33       -12.7710   -1.7118   52.6789 H       1  ZINC000013809319    0.0800
     34 H34       -10.9578   -0.2671   51.7992 H       1  ZINC000013809319    0.0600
     35 H35       -12.1098    0.6761   52.7746 H       1  ZINC000013809319    0.0600
     36 H36        -8.2894   -1.0687   52.6738 H       1  ZINC000013809319    0.1300
     37 H37        -6.2945   -0.1146   51.6007 H       1  ZINC000013809319    0.1400
     38 H38        -5.6982    1.0743   49.6093 H       1  ZINC000013809319    0.1600
     39 H39        -2.3818    4.1278   48.4016 H       1  ZINC000013809319    0.1300
     40 H40        -2.3170    5.2753   49.7609 H       1  ZINC000013809319    0.1300
     41 H41        -0.2542    3.2851   48.1989 H       1  ZINC000013809319    0.4000
     42 H42         1.7722    3.2097   49.9872 H       1  ZINC000013809319    0.0700
     43 H43         0.7828    1.8204   50.4967 H       1  ZINC000013809319    0.0700
     44 H44         0.8909    1.3061   47.8463 H       1  ZINC000013809319    0.0800
     45 H45         2.4210    2.1996   48.0153 H       1  ZINC000013809319    0.0800
     46 H46         1.1695   -0.9780   47.9733 H       1  ZINC000013809319    0.1300
     47 H47         2.2246   -2.9741   48.9539 H       1  ZINC000013809319    0.1300
     48 H48         3.9655   -2.7296   50.6764 H       1  ZINC000013809319    0.1300
     49 H49         4.6551   -0.4874   51.4225 H       1  ZINC000013809319    0.1300
     50 H50         5.5571    1.3390   51.2717 H       1  ZINC000013809319    0.0600
     51 H51         4.8533    2.8828   51.8097 H       1  ZINC000013809319    0.1000
     52 H52         4.2373    1.3473   52.4660 H       1  ZINC000013809319    0.0600
     53 H53        -3.6115    4.9623   51.6611 H       1  ZINC000013809319    0.2000
     54 H54        -7.8356    3.8315   52.2680 H       1  ZINC000013809319    0.1400
     55 H55        -9.8288    2.8663   53.3342 H       1  ZINC000013809319    0.1400
@<TRIPOS>BOND
     1     1     2    1
     2     1    31    1
     3     1    32    1
     4     1    33    1
     5     2     3    1
     6     2    34    1
     7     2    35    1
     8     3     4    1
     9     4    30   ar
    10     4     5   ar
    11     5     6   ar
    12     5    36    1
    13     6     7   ar
    14     6    37    1
    15     7     8    1
    16     7    29   ar
    17     8    28    1
    18     8     9    2
    19     9    10    1
    20     9    38    1
    21    10    11    2
    22    10    12   am
    23    12    13    1
    24    12    27    1
    25    13    14    1
    26    13    39    1
    27    13    40    1
    28    14    15    2
    29    14    16   am
    30    16    17    1
    31    16    41    1
    32    17    18    1
    33    17    42    1
    34    17    43    1
    35    18    19    1
    36    18    44    1
    37    18    45    1
    38    19    24   ar
    39    19    20   ar
    40    20    21   ar
    41    20    46    1
    42    21    22   ar
    43    21    47    1
    44    22    23   ar
    45    22    48    1
    46    23    24   ar
    47    23    49    1
    48    24    25    1
    49    25    26    1
    50    26    50    1
    51    26    51    1
    52    26    52    1
    53    27    28    2
    54    27    53    1
    55    29    30   ar
    56    29    54    1
    57    30    55    1
@<TRIPOS>SUBSTRUCTURE
     1 ZINC000013809319        1 TEMP              0 ****  ****    0 ROOT


##########                                Name:    ZINC000428748914
##########                DOCK_Rotatable_Bonds:                  11
##########                         Heavy_Atoms:                  30
##########                    Molecular_Weight:             413.492
##########                DOCK_Rotatable_Bonds:                  11
##########                       Formal_Charge:           0.0199993
##########                     HBond_Acceptors:                   7
##########                        HBond_Donors:                   3
##########                         Heavy_Atoms:                  30
##########                          Grid_Score:          -34.536537
##########                     Grid_vdw_energy:          -30.172853
##########                      Grid_es_energy:           -4.363682
##########           Internal_energy_repulsive:           21.007627

@<TRIPOS>MOLECULE
ZINC000428748914
 58 61 1 0 0
SMALL
USER_CHARGES


@<TRIPOS>ATOM
      1 O1         -9.8022    4.6736   50.4764 O.2     1  ZINC000428748914   -0.5900
      2 C2         -9.1312    3.9241   49.7935 C.2     1  ZINC000428748914    0.7000
      3 N3         -9.4881    3.6729   48.5184 N.am    1  ZINC000428748914   -0.7400
      4 C4        -10.6880    4.2985   47.9569 C.3     1  ZINC000428748914    0.1900
      5 C5        -11.8157    3.2990   47.9425 C.ar    1  ZINC000428748914   -0.2000
      6 C6        -12.1349    2.6185   46.7759 C.ar    1  ZINC000428748914   -0.0200
      7 C7        -13.1779    1.7090   46.8065 C.ar    1  ZINC000428748914   -0.1900
      8 C8        -13.8658    1.5094   47.9963 C.ar    1  ZINC000428748914    0.3300
      9 O9        -14.8899    0.6204   48.0394 O.3     1  ZINC000428748914   -0.3000
     10 C10       -15.1327   -0.1473   46.8589 C.3     1  ZINC000428748914    0.0800
     11 C11       -14.0645   -1.2585   46.7056 C.3     1  ZINC000428748914   -0.1400
     12 C12       -14.7829   -2.3026   45.8152 C.3     1  ZINC000428748914   -0.1200
     13 C13       -16.2419   -2.2870   46.3160 C.3     1  ZINC000428748914   -0.1200
     14 C14       -16.4643   -0.9166   46.9796 C.3     1  ZINC000428748914   -0.1200
     15 N15       -13.5318    2.1775   49.0881 N.ar    1  ZINC000428748914   -0.5400
     16 C16       -12.5389    3.0463   49.0915 C.ar    1  ZINC000428748914    0.1600
     17 N17        -8.0274    3.3485   50.3102 N.am    1  ZINC000428748914   -0.7400
     18 C18        -7.6393    3.6215   51.6963 C.3     1  ZINC000428748914    0.1800
     19 C19        -6.1815    3.2085   51.9085 C.3     1  ZINC000428748914   -0.1300
     20 C20        -5.8800    1.7226   51.7032 C.3     1  ZINC000428748914    0.1100
     21 O21        -6.4500    0.9683   52.7748 O.3     1  ZINC000428748914   -0.5700
     22 C22        -5.3874    3.9485   52.9868 C.3     1  ZINC000428748914   -0.1400
     23 C23        -5.0977    4.2111   51.5075 C.3     1  ZINC000428748914   -0.1000
     24 H24        -5.4232    5.1651   51.0927 H       1  ZINC000428748914    0.1200
     25 C25        -3.8144    3.6601   50.9414 C.ar    1  ZINC000428748914   -0.0700
     26 C26        -3.8274    2.9734   49.7416 C.ar    1  ZINC000428748914   -0.0900
     27 C27        -2.6512    2.4676   49.2215 C.ar    1  ZINC000428748914   -0.1500
     28 C28        -1.4593    2.6494   49.9022 C.ar    1  ZINC000428748914    0.1000
     29 F29        -0.3087    2.1558   49.3945 F       1  ZINC000428748914   -0.1400
     30 C30        -1.4473    3.3378   51.1035 C.ar    1  ZINC000428748914   -0.1500
     31 C31        -2.6241    3.8467   51.6193 C.ar    1  ZINC000428748914   -0.0800
     32 H32        -8.9506    3.0780   47.9724 H       1  ZINC000428748914    0.4000
     33 H33       -10.9703    5.1561   48.5676 H       1  ZINC000428748914    0.0800
     34 H34       -10.4827    4.6294   46.9388 H       1  ZINC000428748914    0.0800
     35 H35       -11.5823    2.7946   45.8648 H       1  ZINC000428748914    0.1400
     36 H36       -13.4536    1.1622   45.9168 H       1  ZINC000428748914    0.1400
     37 H37       -15.1433    0.4982   45.9806 H       1  ZINC000428748914    0.1000
     38 H38       -13.1748   -0.8730   46.2078 H       1  ZINC000428748914    0.0700
     39 H39       -13.8109   -1.6869   47.6753 H       1  ZINC000428748914    0.0800
     40 H40       -14.7361   -2.0070   44.7672 H       1  ZINC000428748914    0.0700
     41 H41       -14.3424   -3.2899   45.9541 H       1  ZINC000428748914    0.0700
     42 H42       -16.9261   -2.4109   45.4766 H       1  ZINC000428748914    0.0700
     43 H43       -16.3954   -3.0837   47.0440 H       1  ZINC000428748914    0.0700
     44 H44       -16.7257   -1.0482   48.0296 H       1  ZINC000428748914    0.0800
     45 H45       -17.2565   -0.3754   46.4621 H       1  ZINC000428748914    0.0700
     46 H46       -12.2945    3.5731   50.0020 H       1  ZINC000428748914    0.1600
     47 H47        -7.4898    2.7537   49.7642 H       1  ZINC000428748914    0.3900
     48 H48        -7.7489    4.6863   51.9013 H       1  ZINC000428748914    0.0700
     49 H49        -8.2798    3.0537   52.3713 H       1  ZINC000428748914    0.0900
     50 H50        -6.3095    1.3920   50.7575 H       1  ZINC000428748914    0.0500
     51 H51        -4.8009    1.5699   51.6851 H       1  ZINC000428748914    0.0600
     52 H52        -5.9719    1.0503   53.6113 H       1  ZINC000428748914    0.3800
     53 H53        -5.9036    4.7296   53.5449 H       1  ZINC000428748914    0.1100
     54 H54        -4.6501    3.3768   53.5503 H       1  ZINC000428748914    0.1100
     55 H55        -4.7573    2.8317   49.2108 H       1  ZINC000428748914    0.1400
     56 H56        -2.6618    1.9306   48.2846 H       1  ZINC000428748914    0.1400
     57 H57        -0.5183    3.4798   51.6355 H       1  ZINC000428748914    0.1400
     58 H58        -2.6150    4.3840   52.5562 H       1  ZINC000428748914    0.1300
@<TRIPOS>BOND
     1     1     2    2
     2     2     3   am
     3     2    17   am
     4     3     4    1
     5     3    32    1
     6     4     5    1
     7     4    33    1
     8     4    34    1
     9     5    16   ar
    10     5     6   ar
    11     6     7   ar
    12     6    35    1
    13     7     8   ar
    14     7    36    1
    15     8     9    1
    16     8    15   ar
    17     9    10    1
    18    10    14    1
    19    10    11    1
    20    10    37    1
    21    11    12    1
    22    11    38    1
    23    11    39    1
    24    12    13    1
    25    12    40    1
    26    12    41    1
    27    13    14    1
    28    13    42    1
    29    13    43    1
    30    14    44    1
    31    14    45    1
    32    15    16   ar
    33    16    46    1
    34    17    18    1
    35    17    47    1
    36    18    19    1
    37    18    48    1
    38    18    49    1
    39    19    23    1
    40    19    20    1
    41    19    22    1
    42    20    21    1
    43    20    50    1
    44    20    51    1
    45    21    52    1
    46    22    23    1
    47    22    53    1
    48    22    54    1
    49    23    24    1
    50    23    25    1
    51    25    31   ar
    52    25    26   ar
    53    26    27   ar
    54    26    55    1
    55    27    28   ar
    56    27    56    1
    57    28    29    1
    58    28    30   ar
    59    30    31   ar
    60    30    57    1
    61    31    58    1
@<TRIPOS>SUBSTRUCTURE
     1 ZINC000428748914        1 TEMP              0 ****  ****    0 ROOT


##########                                Name:    ZINC000484900616
##########                DOCK_Rotatable_Bonds:                  10
##########                         Heavy_Atoms:                  29
##########                    Molecular_Weight:             415.556
##########                DOCK_Rotatable_Bonds:                  10
##########                       Formal_Charge:        -1.49012e-08
##########                     HBond_Acceptors:                   7
##########                        HBond_Donors:                   1
##########                         Heavy_Atoms:                  29
##########                          Grid_Score:          -34.514977
##########                     Grid_vdw_energy:          -33.102352
##########                      Grid_es_energy:           -1.412625
##########           Internal_energy_repulsive:            9.035584

@<TRIPOS>MOLECULE
ZINC000484900616
 58 60 1 0 0
SMALL
USER_CHARGES


@<TRIPOS>ATOM
      1 C1          3.2814    1.9108   56.6016 C.3     1  ZINC000484900616   -0.1500
      2 C2          2.5635    2.4706   55.3719 C.3     1  ZINC000484900616    0.0600
      3 O3          1.1639    2.6928   55.6881 O.3     1  ZINC000484900616   -0.3400
      4 C4          0.3936    3.2217   54.7166 C.2     1  ZINC000484900616    0.5500
      5 O5          0.8795    3.4938   53.6361 O.2     1  ZINC000484900616   -0.5000
      6 C6         -1.0353    3.4698   54.9639 C.2     1  ZINC000484900616    0.0200
      7 C7         -1.5747    3.5149   56.2037 C.2     1  ZINC000484900616   -0.2400
      8 S8         -3.2500    3.8249   56.0652 S.3     1  ZINC000484900616    0.2900
      9 C9         -3.1343    3.8765   54.3622 C.2     1  ZINC000484900616    0.0300
     10 C10        -4.2923    4.1264   53.4306 C.3     1  ZINC000484900616    0.1500
     11 H11        -5.0489    3.3510   53.5504 H       1  ZINC000484900616    0.0900
     12 C12        -4.9058    5.5239   53.6959 C.3     1  ZINC000484900616   -0.1200
     13 C13        -5.5749    5.8364   52.3315 C.3     1  ZINC000484900616   -0.1400
     14 C14        -4.5988    5.2095   51.3138 C.3     1  ZINC000484900616    0.0500
     15 N15        -3.8240    4.1767   52.0292 N.3     1  ZINC000484900616   -0.5100
     16 C16        -3.9626    2.8681   51.3764 C.3     1  ZINC000484900616    0.0300
     17 C17        -3.1892    2.8676   50.0829 C.2     1  ZINC000484900616    0.5200
     18 O18        -3.5601    2.1803   49.1550 O.2     1  ZINC000484900616   -0.5100
     19 N19        -2.0856    3.6308   49.9574 N.am    1  ZINC000484900616   -0.7300
     20 C20        -1.3348    3.6315   48.6993 C.3     1  ZINC000484900616    0.1900
     21 H21        -2.0112    3.4156   47.8723 H       1  ZINC000484900616    0.1000
     22 C22        -0.6940    5.0049   48.4888 C.3     1  ZINC000484900616   -0.1600
     23 C23        -0.2584    2.5784   48.7560 C.ar    1  ZINC000484900616   -0.1000
     24 C24         0.1273    1.9214   47.6025 C.ar    1  ZINC000484900616   -0.1100
     25 C25         1.1147    0.9553   47.6545 C.ar    1  ZINC000484900616   -0.1100
     26 C26         1.7167    0.6465   48.8600 C.ar    1  ZINC000484900616   -0.0800
     27 C27         2.7928   -0.4069   48.9168 C.3     1  ZINC000484900616   -0.0900
     28 C28         2.1776   -1.7421   49.3407 C.3     1  ZINC000484900616   -0.1500
     29 C29         1.3321    1.3045   50.0132 C.ar    1  ZINC000484900616   -0.1100
     30 C30         0.3473    2.2733   49.9605 C.ar    1  ZINC000484900616   -0.1000
     31 N31        -1.9208    3.6773   53.9853 N.2     1  ZINC000484900616   -0.4300
     32 H32         3.2031    2.6225   57.4235 H       1  ZINC000484900616    0.0700
     33 H33         2.8205    0.9669   56.8931 H       1  ZINC000484900616    0.0700
     34 H34         4.3322    1.7440   56.3644 H       1  ZINC000484900616    0.0800
     35 H35         3.0244    3.4143   55.0805 H       1  ZINC000484900616    0.0700
     36 H36         2.6419    1.7589   54.5501 H       1  ZINC000484900616    0.0700
     37 H37        -1.0353    3.3775   57.1292 H       1  ZINC000484900616    0.1900
     38 H38        -5.6475    5.4798   54.4935 H       1  ZINC000484900616    0.0900
     39 H39        -4.1297    6.2537   53.9263 H       1  ZINC000484900616    0.0800
     40 H40        -6.5554    5.3645   52.2661 H       1  ZINC000484900616    0.0700
     41 H41        -5.6530    6.9126   52.1780 H       1  ZINC000484900616    0.0800
     42 H42        -5.1575    4.7524   50.4972 H       1  ZINC000484900616    0.0600
     43 H43        -3.9276    5.9747   50.9241 H       1  ZINC000484900616    0.0900
     44 H44        -3.5721    2.0910   52.0335 H       1  ZINC000484900616    0.1100
     45 H45        -5.0153    2.6745   51.1704 H       1  ZINC000484900616    0.0700
     46 H46        -1.7882    4.1794   50.6999 H       1  ZINC000484900616    0.4000
     47 H47        -0.1353    5.0055   47.5529 H       1  ZINC000484900616    0.0700
     48 H48        -1.4725    5.7667   48.4478 H       1  ZINC000484900616    0.0700
     49 H49        -0.0176    5.2208   49.3158 H       1  ZINC000484900616    0.0600
     50 H50        -0.3431    2.1626   46.6607 H       1  ZINC000484900616    0.1200
     51 H51         1.4154    0.4415   46.7534 H       1  ZINC000484900616    0.1200
     52 H52         3.2494   -0.5133   47.9328 H       1  ZINC000484900616    0.0700
     53 H53         3.5529   -0.1112   49.6400 H       1  ZINC000484900616    0.0700
     54 H54         1.7211   -1.6356   50.3247 H       1  ZINC000484900616    0.0600
     55 H55         1.4176   -2.0378   48.6176 H       1  ZINC000484900616    0.0600
     56 H56         2.9560   -2.5040   49.3819 H       1  ZINC000484900616    0.0600
     57 H57         1.8027    1.0636   50.9549 H       1  ZINC000484900616    0.1200
     58 H58         0.0468    2.7874   50.8616 H       1  ZINC000484900616    0.1200
@<TRIPOS>BOND
     1     1     2    1
     2     1    32    1
     3     1    33    1
     4     1    34    1
     5     2     3    1
     6     2    35    1
     7     2    36    1
     8     3     4    1
     9     4     5    2
    10     4     6    1
    11     6    31    1
    12     6     7    2
    13     7     8    1
    14     7    37    1
    15     8     9    1
    16     9    10    1
    17     9    31    2
    18    10    11    1
    19    10    15    1
    20    10    12    1
    21    12    13    1
    22    12    38    1
    23    12    39    1
    24    13    14    1
    25    13    40    1
    26    13    41    1
    27    14    15    1
    28    14    42    1
    29    14    43    1
    30    15    16    1
    31    16    17    1
    32    16    44    1
    33    16    45    1
    34    17    18    2
    35    17    19   am
    36    19    20    1
    37    19    46    1
    38    20    21    1
    39    20    22    1
    40    20    23    1
    41    22    47    1
    42    22    48    1
    43    22    49    1
    44    23    30   ar
    45    23    24   ar
    46    24    25   ar
    47    24    50    1
    48    25    26   ar
    49    25    51    1
    50    26    27    1
    51    26    29   ar
    52    27    28    1
    53    27    52    1
    54    27    53    1
    55    28    54    1
    56    28    55    1
    57    28    56    1
    58    29    30   ar
    59    29    57    1
    60    30    58    1
@<TRIPOS>SUBSTRUCTURE
     1 ZINC000484900616        1 TEMP              0 ****  ****    0 ROOT


##########                                Name:    ZINC001105194920
##########                DOCK_Rotatable_Bonds:                   8
##########                         Heavy_Atoms:                  25
##########                    Molecular_Weight:             346.392
##########                DOCK_Rotatable_Bonds:                   8
##########                       Formal_Charge:          -0.0100007
##########                     HBond_Acceptors:                  10
##########                        HBond_Donors:                   3
##########                         Heavy_Atoms:                  25
##########                          Grid_Score:          -34.405865
##########                     Grid_vdw_energy:          -32.994164
##########                      Grid_es_energy:           -1.411700
##########           Internal_energy_repulsive:            7.606929

@<TRIPOS>MOLECULE
ZINC001105194920
 47 49 1 0 0
SMALL
USER_CHARGES


@<TRIPOS>ATOM
      1 C1         -6.8617   -1.6750   51.6044 C.3     1  ZINC001105194920    0.0300
      2 O2         -6.4851   -0.4104   51.0557 O.3     1  ZINC001105194920   -0.3900
      3 C3         -6.9740    0.7119   51.7929 C.3     1  ZINC001105194920    0.0700
      4 C4         -6.4970    2.0051   51.1289 C.3     1  ZINC001105194920    0.0900
      5 H5         -6.9960    2.1252   50.1673 H       1  ZINC001105194920    0.0900
      6 C6         -6.8333    3.1951   52.0300 C.3     1  ZINC001105194920   -0.1800
      7 N7         -5.0439    1.9426   50.9222 N.3     1  ZINC001105194920   -0.6800
      8 C8         -4.6145    2.9126   49.9061 C.3     1  ZINC001105194920    0.1400
      9 C9         -3.1174    2.8440   49.7472 C.2     1  ZINC001105194920   -0.0200
     10 C10        -2.1961    3.5519   50.4414 C.2     1  ZINC001105194920   -0.0200
     11 N11        -0.9889    3.1677   49.9660 N.pl3   1  ZINC001105194920   -0.2800
     12 C12         0.3111    3.6680   50.4197 C.3     1  ZINC001105194920    0.1000
     13 C13         1.2733    2.5603   50.8857 C.3     1  ZINC001105194920    0.1100
     14 N14         1.7486    2.5244   49.4890 N.am    1  ZINC001105194920   -0.6300
     15 C15         2.3428    1.5930   48.7171 C.2     1  ZINC001105194920    0.6200
     16 O16         2.6287    1.8516   47.5640 O.2     1  ZINC001105194920   -0.5400
     17 C17         2.6465    0.2580   49.2720 C.ar    1  ZINC001105194920   -0.0600
     18 N18         1.9615   -0.8066   48.8647 N.ar    1  ZINC001105194920   -0.3700
     19 C19         2.2348   -1.9958   49.3617 C.ar    1  ZINC001105194920   -0.0200
     20 C20         3.2361   -2.1458   50.3105 C.ar    1  ZINC001105194920    0.1500
     21 N21         3.9245   -1.0978   50.7249 N.ar    1  ZINC001105194920   -0.5100
     22 C22         3.6642    0.1059   50.2282 C.ar    1  ZINC001105194920    0.4200
     23 N23         4.3829    1.2059   50.6589 N.pl3   1  ZINC001105194920   -0.8100
     24 C24         1.3120    3.9181   49.2771 C.3     1  ZINC001105194920    0.1100
     25 N25        -1.1791    2.2868   49.0470 N.2     1  ZINC001105194920   -0.0800
     26 N26        -2.4376    2.0673   48.8963 N.2     1  ZINC001105194920   -0.2600
     27 H27        -7.9487   -1.7528   51.6253 H       1  ZINC001105194920    0.0400
     28 H28        -6.4519   -2.4751   50.9879 H       1  ZINC001105194920    0.0800
     29 H29        -6.4716   -1.7616   52.6185 H       1  ZINC001105194920    0.0400
     30 H30        -8.0637    0.6909   51.8064 H       1  ZINC001105194920    0.0600
     31 H31        -6.5970    0.6676   52.8146 H       1  ZINC001105194920    0.0500
     32 H32        -6.3343    3.0749   52.9917 H       1  ZINC001105194920    0.0700
     33 H33        -6.4935    4.1165   51.5570 H       1  ZINC001105194920    0.0500
     34 H34        -7.9114    3.2416   52.1833 H       1  ZINC001105194920    0.0600
     35 H35        -4.5489    2.0845   51.7899 H       1  ZINC001105194920    0.3500
     36 H36        -5.0921    2.6779   48.9549 H       1  ZINC001105194920    0.0900
     37 H37        -4.9010    3.9168   50.2186 H       1  ZINC001105194920    0.0500
     38 H38        -2.3862    4.2779   51.2181 H       1  ZINC001105194920    0.1800
     39 H39         0.2259    4.5002   51.1185 H       1  ZINC001105194920    0.1500
     40 H40         2.0251    2.9021   51.5971 H       1  ZINC001105194920    0.1200
     41 H41         0.7707    1.6463   51.2023 H       1  ZINC001105194920    0.1000
     42 H42         1.6764   -2.8583   49.0291 H       1  ZINC001105194920    0.1800
     43 H43         3.4534   -3.1244   50.7124 H       1  ZINC001105194920    0.1800
     44 H44         5.1298    1.0895   51.2667 H       1  ZINC001105194920    0.4000
     45 H45         4.1402    2.0939   50.3533 H       1  ZINC001105194920    0.4300
     46 H46         0.8403    4.0884   48.3092 H       1  ZINC001105194920    0.1100
     47 H47         2.0753    4.6588   49.5158 H       1  ZINC001105194920    0.1200
@<TRIPOS>BOND
     1     1     2    1
     2     1    27    1
     3     1    28    1
     4     1    29    1
     5     2     3    1
     6     3     4    1
     7     3    30    1
     8     3    31    1
     9     4     5    1
    10     4     6    1
    11     4     7    1
    12     6    32    1
    13     6    33    1
    14     6    34    1
    15     7     8    1
    16     7    35    1
    17     8     9    1
    18     8    36    1
    19     8    37    1
    20     9    26    1
    21     9    10    2
    22    10    11    1
    23    10    38    1
    24    11    12    1
    25    11    25    1
    26    12    24    1
    27    12    13    1
    28    12    39    1
    29    13    14    1
    30    13    40    1
    31    13    41    1
    32    14    15   am
    33    14    24    1
    34    15    16    2
    35    15    17    1
    36    17    22   ar
    37    17    18   ar
    38    18    19   ar
    39    19    20   ar
    40    19    42    1
    41    20    21   ar
    42    20    43    1
    43    21    22   ar
    44    22    23    1
    45    23    44    1
    46    23    45    1
    47    24    46    1
    48    24    47    1
    49    25    26    2
@<TRIPOS>SUBSTRUCTURE
     1 ZINC001105194920        1 TEMP              0 ****  ****    0 ROOT


##########                                Name:    ZINC000957079511
##########                DOCK_Rotatable_Bonds:                   8
##########                         Heavy_Atoms:                  25
##########                    Molecular_Weight:             362.453
##########                DOCK_Rotatable_Bonds:                   8
##########                       Formal_Charge:        -4.32134e-07
##########                     HBond_Acceptors:                   8
##########                        HBond_Donors:                   2
##########                         Heavy_Atoms:                  25
##########                          Grid_Score:          -34.395908
##########                     Grid_vdw_energy:          -31.869251
##########                      Grid_es_energy:           -2.526657
##########           Internal_energy_repulsive:            9.096886

@<TRIPOS>MOLECULE
ZINC000957079511
 47 49 1 0 0
SMALL
USER_CHARGES


@<TRIPOS>ATOM
      1 C1        -10.4149    1.1000   53.4528 C.3     1  ZINC000957079511   -0.0700
      2 C2         -9.1650    0.4468   52.9214 C.2     1  ZINC000957079511    0.0300
      3 C3         -7.9695    1.0439   52.7551 C.2     1  ZINC000957079511   -0.0200
      4 C4         -7.6320    2.4800   53.0629 C.3     1  ZINC000957079511   -0.0600
      5 C5         -6.6723    3.0038   52.0258 C.2     1  ZINC000957079511    0.5100
      6 O6         -7.0956    3.5348   51.0209 O.2     1  ZINC000957079511   -0.5200
      7 N7         -5.3434    2.8821   52.2149 N.am    1  ZINC000957079511   -0.7200
      8 C8         -4.4103    3.3897   51.2060 C.3     1  ZINC000957079511    0.1400
      9 H9         -4.7934    4.3004   50.7457 H       1  ZINC000957079511    0.1100
     10 C10        -4.1090    2.3110   50.1357 C.3     1  ZINC000957079511    0.0800
     11 N11        -2.7880    2.6766   49.5930 N.am    1  ZINC000957079511   -0.6200
     12 C12        -2.3186    2.3398   48.3753 C.2     1  ZINC000957079511    0.5400
     13 O13        -3.0024    1.6778   47.6236 O.2     1  ZINC000957079511   -0.5100
     14 C14        -0.9440    2.7856   47.9478 C.3     1  ZINC000957079511    0.0500
     15 O15        -0.9257    2.9824   46.5325 O.3     1  ZINC000957079511   -0.2800
     16 C16         0.2734    3.2953   45.9670 C.2     1  ZINC000957079511    0.1200
     17 C17         1.3867    3.4630   46.6869 C.2     1  ZINC000957079511   -0.3300
     18 S18         2.7271    3.8560   45.6182 S.3     1  ZINC000957079511    0.1300
     19 C19         1.6732    3.7687   44.2128 C.2     1  ZINC000957079511   -0.1800
     20 C20         0.4343    3.4587   44.5995 C.2     1  ZINC000957079511   -0.1400
     21 C21        -2.0678    3.4702   50.5995 C.3     1  ZINC000957079511    0.1100
     22 C22        -3.0038    3.6248   51.8173 C.3     1  ZINC000957079511   -0.1100
     23 H23        -2.7815    2.8711   52.5728 H       1  ZINC000957079511    0.0900
     24 C24        -2.8935    5.0311   52.4098 C.3     1  ZINC000957079511   -0.1400
     25 N25        -7.1194    0.0955   52.2535 N.pl3   1  ZINC000957079511   -0.5600
     26 C26        -7.8257   -1.0490   52.1305 C.2     1  ZINC000957079511    0.2000
     27 N27        -9.0470   -0.8326   52.5365 N.2     1  ZINC000957079511   -0.4900
     28 H28       -10.4472    0.9943   54.5371 H       1  ZINC000957079511    0.0700
     29 H29       -10.4114    2.1581   53.1909 H       1  ZINC000957079511    0.0600
     30 H30       -11.2900    0.6201   53.0147 H       1  ZINC000957079511    0.0700
     31 H31        -8.5432    3.0783   53.0498 H       1  ZINC000957079511    0.1000
     32 H32        -7.1711    2.5417   54.0486 H       1  ZINC000957079511    0.1200
     33 H33        -5.0047    2.4586   53.0192 H       1  ZINC000957079511    0.4000
     34 H34        -4.0706    1.3226   50.5939 H       1  ZINC000957079511    0.0800
     35 H35        -4.8627    2.3362   49.3489 H       1  ZINC000957079511    0.0800
     36 H36        -0.6937    3.7212   48.4479 H       1  ZINC000957079511    0.0900
     37 H37        -0.2141    2.0225   48.2180 H       1  ZINC000957079511    0.0900
     38 H38         1.4532    3.3716   47.7610 H       1  ZINC000957079511    0.1700
     39 H39         1.9827    3.9362   43.1919 H       1  ZINC000957079511    0.1800
     40 H40        -0.3826    3.3510   43.9012 H       1  ZINC000957079511    0.1500
     41 H41        -1.1555    2.9528   50.8961 H       1  ZINC000957079511    0.0800
     42 H42        -1.8244    4.4517   50.1929 H       1  ZINC000957079511    0.0800
     43 H43        -3.1483    5.7674   51.6475 H       1  ZINC000957079511    0.0600
     44 H44        -3.5804    5.1260   53.2508 H       1  ZINC000957079511    0.0600
     45 H45        -1.8731    5.2017   52.7531 H       1  ZINC000957079511    0.0700
     46 H46        -6.1844    0.2218   52.0283 H       1  ZINC000957079511    0.4200
     47 H47        -7.4423   -1.9887   51.7612 H       1  ZINC000957079511    0.2100
@<TRIPOS>BOND
     1     1     2    1
     2     1    28    1
     3     1    29    1
     4     1    30    1
     5     2    27    1
     6     2     3    2
     7     3     4    1
     8     3    25    1
     9     4     5    1
    10     4    31    1
    11     4    32    1
    12     5     6    2
    13     5     7   am
    14     7     8    1
    15     7    33    1
    16     8     9    1
    17     8    22    1
    18     8    10    1
    19    10    11    1
    20    10    34    1
    21    10    35    1
    22    11    12   am
    23    11    21    1
    24    12    13    2
    25    12    14    1
    26    14    15    1
    27    14    36    1
    28    14    37    1
    29    15    16    1
    30    16    20    1
    31    16    17    2
    32    17    18    1
    33    17    38    1
    34    18    19    1
    35    19    20    2
    36    19    39    1
    37    20    40    1
    38    21    22    1
    39    21    41    1
    40    21    42    1
    41    22    23    1
    42    22    24    1
    43    24    43    1
    44    24    44    1
    45    24    45    1
    46    25    26    1
    47    25    46    1
    48    26    27    2
    49    26    47    1
@<TRIPOS>SUBSTRUCTURE
     1 ZINC000957079511        1 TEMP              0 ****  ****    0 ROOT


##########                                Name:    ZINC001289410668
##########                DOCK_Rotatable_Bonds:                  11
##########                         Heavy_Atoms:                  26
##########                    Molecular_Weight:             362.515
##########                DOCK_Rotatable_Bonds:                  11
##########                       Formal_Charge:          -0.0400008
##########                     HBond_Acceptors:                   6
##########                        HBond_Donors:                   1
##########                         Heavy_Atoms:                  26
##########                          Grid_Score:          -34.341202
##########                     Grid_vdw_energy:          -31.934258
##########                      Grid_es_energy:           -2.406944
##########           Internal_energy_repulsive:           12.873810

@<TRIPOS>MOLECULE
ZINC001289410668
 60 61 1 0 0
SMALL
USER_CHARGES


@<TRIPOS>ATOM
      1 C1        -13.4247   -0.4190   52.3227 C.3     1  ZINC001289410668   -0.1500
      2 C2        -12.1653   -0.8339   53.0861 C.3     1  ZINC001289410668   -0.1300
      3 C3        -10.9897    0.0394   52.6432 C.3     1  ZINC001289410668   -0.1200
      4 C4         -9.7300   -0.3762   53.4057 C.3     1  ZINC001289410668   -0.1200
      5 C5         -8.5026    0.2551   52.7455 C.3     1  ZINC001289410668   -0.1100
      6 C6         -8.3998    1.7243   53.1598 C.3     1  ZINC001289410668   -0.1400
      7 C7         -7.5030    2.4566   52.1951 C.2     1  ZINC001289410668    0.5100
      8 O8         -7.9858    3.1544   51.3285 O.2     1  ZINC001289410668   -0.5300
      9 N9         -6.1644    2.3361   52.2953 N.am    1  ZINC001289410668   -0.7200
     10 C10        -5.2926    3.0466   51.3565 C.3     1  ZINC001289410668    0.1400
     11 H11        -5.8441    3.8220   50.8248 H       1  ZINC001289410668    0.1100
     12 C12        -4.6245    2.0615   50.3651 C.3     1  ZINC001289410668    0.0800
     13 N13        -3.3902    2.7414   49.9317 N.am    1  ZINC001289410668   -0.6200
     14 C14        -2.7317    2.5140   48.7780 C.2     1  ZINC001289410668    0.5100
     15 O15        -3.1485    1.6871   47.9947 O.2     1  ZINC001289410668   -0.5100
     16 C16        -1.4775    3.2872   48.4612 C.3     1  ZINC001289410668    0.0900
     17 N17        -0.4745    2.3807   47.8969 N.pl3   1  ZINC001289410668   -0.4500
     18 C18        -0.5287    1.7701   46.6730 C.2     1  ZINC001289410668   -0.0500
     19 C19         0.5904    1.0298   46.5570 C.2     1  ZINC001289410668   -0.0200
     20 N20         1.3082    1.1844   47.6794 N.2     1  ZINC001289410668   -0.4800
     21 C21         0.6790    1.9962   48.4844 C.2     1  ZINC001289410668    0.2300
     22 C22         1.1560    2.4259   49.8478 C.3     1  ZINC001289410668   -0.0100
     23 C23         1.9460    1.2862   50.4944 C.3     1  ZINC001289410668   -0.1400
     24 C24         2.0557    3.6556   49.7092 C.3     1  ZINC001289410668   -0.1400
     25 C25        -2.9968    3.7091   50.9664 C.3     1  ZINC001289410668    0.1100
     26 C26        -4.0587    3.6419   52.0849 C.3     1  ZINC001289410668   -0.1100
     27 H27        -3.7309    2.9825   52.8886 H       1  ZINC001289410668    0.0900
     28 C28        -4.3650    5.0400   52.6253 C.3     1  ZINC001289410668   -0.1400
     29 H29       -14.2623   -1.0413   52.6381 H       1  ZINC001289410668    0.0500
     30 H30       -13.6493    0.6265   52.5332 H       1  ZINC001289410668    0.0500
     31 H31       -13.2598   -0.5470   51.2529 H       1  ZINC001289410668    0.0500
     32 H32       -12.3303   -0.7060   54.1559 H       1  ZINC001289410668    0.0600
     33 H33       -11.9407   -1.8795   52.8756 H       1  ZINC001289410668    0.0600
     34 H34       -10.8254   -0.0878   51.5732 H       1  ZINC001289410668    0.0600
     35 H35       -11.2139    1.0850   52.8547 H       1  ZINC001289410668    0.0600
     36 H36        -9.8019   -0.0364   54.4389 H       1  ZINC001289410668    0.0600
     37 H37        -9.6350   -1.4619   53.3860 H       1  ZINC001289410668    0.0600
     38 H38        -7.6055   -0.2758   53.0639 H       1  ZINC001289410668    0.0700
     39 H39        -8.5986    0.1890   51.6618 H       1  ZINC001289410668    0.0700
     40 H40        -9.3919    2.1756   53.1476 H       1  ZINC001289410668    0.1000
     41 H41        -7.9830    1.7902   54.1648 H       1  ZINC001289410668    0.1000
     42 H42        -5.7782    1.7790   52.9891 H       1  ZINC001289410668    0.4000
     43 H43        -4.3850    1.1234   50.8659 H       1  ZINC001289410668    0.0800
     44 H44        -5.2777    1.8809   49.5114 H       1  ZINC001289410668    0.0800
     45 H45        -1.7065    4.0707   47.7388 H       1  ZINC001289410668    0.1200
     46 H46        -1.0879    3.7372   49.3742 H       1  ZINC001289410668    0.1200
     47 H47        -1.3175    1.8635   45.9412 H       1  ZINC001289410668    0.1700
     48 H48         0.8621    0.4189   45.7089 H       1  ZINC001289410668    0.1700
     49 H49         0.2972    2.6725   50.4722 H       1  ZINC001289410668    0.0700
     50 H50         2.8048    1.0396   49.8700 H       1  ZINC001289410668    0.0700
     51 H51         2.2910    1.5971   51.4805 H       1  ZINC001289410668    0.0600
     52 H52         1.3050    0.4102   50.5931 H       1  ZINC001289410668    0.0500
     53 H53         2.9145    3.4089   49.0848 H       1  ZINC001289410668    0.0700
     54 H54         1.4929    4.4675   49.2485 H       1  ZINC001289410668    0.0600
     55 H55         2.4008    3.9665   50.6952 H       1  ZINC001289410668    0.0600
     56 H56        -2.0182    3.4458   51.3675 H       1  ZINC001289410668    0.0800
     57 H57        -2.9683    4.7132   50.5431 H       1  ZINC001289410668    0.0800
     58 H58        -4.7190    5.6742   51.8126 H       1  ZINC001289410668    0.0600
     59 H59        -5.1343    4.9718   53.3945 H       1  ZINC001289410668    0.0600
     60 H60        -3.4598    5.4702   53.0540 H       1  ZINC001289410668    0.0700
@<TRIPOS>BOND
     1     1     2    1
     2     1    29    1
     3     1    30    1
     4     1    31    1
     5     2     3    1
     6     2    32    1
     7     2    33    1
     8     3     4    1
     9     3    34    1
    10     3    35    1
    11     4     5    1
    12     4    36    1
    13     4    37    1
    14     5     6    1
    15     5    38    1
    16     5    39    1
    17     6     7    1
    18     6    40    1
    19     6    41    1
    20     7     8    2
    21     7     9   am
    22     9    10    1
    23     9    42    1
    24    10    11    1
    25    10    26    1
    26    10    12    1
    27    12    13    1
    28    12    43    1
    29    12    44    1
    30    13    14   am
    31    13    25    1
    32    14    15    2
    33    14    16    1
    34    16    17    1
    35    16    45    1
    36    16    46    1
    37    17    21    1
    38    17    18    1
    39    18    19    2
    40    18    47    1
    41    19    20    1
    42    19    48    1
    43    20    21    2
    44    21    22    1
    45    22    23    1
    46    22    24    1
    47    22    49    1
    48    23    50    1
    49    23    51    1
    50    23    52    1
    51    24    53    1
    52    24    54    1
    53    24    55    1
    54    25    26    1
    55    25    56    1
    56    25    57    1
    57    26    27    1
    58    26    28    1
    59    28    58    1
    60    28    59    1
    61    28    60    1
@<TRIPOS>SUBSTRUCTURE
     1 ZINC001289410668        1 TEMP              0 ****  ****    0 ROOT


##########                                Name:    ZINC000992031068
##########                DOCK_Rotatable_Bonds:                   8
##########                         Heavy_Atoms:                  25
##########                    Molecular_Weight:             342.401
##########                DOCK_Rotatable_Bonds:                   8
##########                       Formal_Charge:           0.0199999
##########                     HBond_Acceptors:                   8
##########                        HBond_Donors:                   2
##########                         Heavy_Atoms:                  25
##########                          Grid_Score:          -34.297264
##########                     Grid_vdw_energy:          -30.128048
##########                      Grid_es_energy:           -4.169216
##########           Internal_energy_repulsive:            6.662112

@<TRIPOS>MOLECULE
ZINC000992031068
 47 49 1 0 0
SMALL
USER_CHARGES


@<TRIPOS>ATOM
      1 C1         -5.9602    1.4270   50.7326 C.3     1  ZINC000992031068   -0.1100
      2 C2         -4.6644    2.1962   50.7161 C.ar    1  ZINC000992031068    0.1800
      3 C3         -4.1669    2.7599   51.8823 C.ar    1  ZINC000992031068   -0.1700
      4 C4         -2.9630    3.4622   51.8155 C.ar    1  ZINC000992031068    0.1300
      5 C5         -2.3843    4.0853   53.0323 C.2     1  ZINC000992031068    0.5700
      6 O6         -1.5266    4.9392   52.9281 O.2     1  ZINC000992031068   -0.5200
      7 N7         -2.8104    3.7037   54.2526 N.am    1  ZINC000992031068   -0.7100
      8 C8         -2.2406    4.3199   55.4533 C.3     1  ZINC000992031068    0.1300
      9 C9         -1.0442    3.4947   55.9313 C.3     1  ZINC000992031068   -0.1200
     10 C10        -0.4497    3.9852   57.2621 C.3     1  ZINC000992031068   -0.1400
     11 C11        -0.2855    2.5046   57.6439 C.3     1  ZINC000992031068    0.1200
     12 N12        -0.6079    2.2206   59.0446 N.am    1  ZINC000992031068   -0.7200
     13 C13         0.3490    2.3153   59.9889 C.2     1  ZINC000992031068    0.5200
     14 O14         1.4765    2.6372   59.6794 O.2     1  ZINC000992031068   -0.5200
     15 C15         0.0178    2.0214   61.4294 C.3     1  ZINC000992031068   -0.0800
     16 C16         0.3531    0.5852   61.7389 C.2     1  ZINC000992031068    0.1000
     17 C17         0.3268   -0.4466   60.8638 C.2     1  ZINC000992031068   -0.2500
     18 C18         0.7044   -1.6043   61.5520 C.2     1  ZINC000992031068    0.0500
     19 N19         0.9486   -1.2792   62.7955 N.2     1  ZINC000992031068   -0.2900
     20 N20         0.7390    0.0986   62.9371 N.pl3   1  ZINC000992031068   -0.3700
     21 C21         0.9011    0.8729   64.1701 C.3     1  ZINC000992031068    0.1000
     22 C22        -1.4408    2.2075   56.6734 C.3     1  ZINC000992031068   -0.1400
     23 N23        -2.3419    3.5637   50.6429 N.ar    1  ZINC000992031068   -0.5000
     24 C24        -2.8513    3.0124   49.5621 C.ar    1  ZINC000992031068    0.3000
     25 N25        -3.9843    2.3379   49.5913 N.ar    1  ZINC000992031068   -0.5100
     26 H26        -5.7565    0.3764   50.9397 H       1  ZINC000992031068    0.0900
     27 H27        -6.6123    1.8302   51.5075 H       1  ZINC000992031068    0.0900
     28 H28        -6.4491    1.5179   49.7627 H       1  ZINC000992031068    0.0900
     29 H29        -4.6978    2.6581   52.8173 H       1  ZINC000992031068    0.1600
     30 H30        -3.4945    3.0211   54.3358 H       1  ZINC000992031068    0.4100
     31 H31        -1.9135    5.3334   55.2213 H       1  ZINC000992031068    0.0700
     32 H32        -2.9962    4.3528   56.2383 H       1  ZINC000992031068    0.0800
     33 H33        -0.2998    3.3371   55.1509 H       1  ZINC000992031068    0.1000
     34 H34         0.4963    4.5145   57.1489 H       1  ZINC000992031068    0.0800
     35 H35        -1.1635    4.5210   57.8879 H       1  ZINC000992031068    0.0900
     36 H36         0.6679    2.0769   57.3340 H       1  ZINC000992031068    0.1200
     37 H37        -1.5100    1.9643   59.2922 H       1  ZINC000992031068    0.4000
     38 H38         0.5988    2.6778   62.0771 H       1  ZINC000992031068    0.1200
     39 H39        -1.0454    2.1911   61.5996 H       1  ZINC000992031068    0.1100
     40 H40         0.0608   -0.3869   59.8188 H       1  ZINC000992031068    0.1500
     41 H41         0.7805   -2.5955   61.1298 H       1  ZINC000992031068    0.1800
     42 H42         1.9256    1.2389   64.2372 H       1  ZINC000992031068    0.0800
     43 H43         0.2131    1.7184   64.1612 H       1  ZINC000992031068    0.0800
     44 H44         0.6850    0.2377   65.0291 H       1  ZINC000992031068    0.0900
     45 H45        -2.4255    2.2572   57.1384 H       1  ZINC000992031068    0.0900
     46 H46        -1.2947    1.3016   56.0851 H       1  ZINC000992031068    0.0800
     47 H47        -2.3243    3.1118   48.6248 H       1  ZINC000992031068    0.2100
@<TRIPOS>BOND
     1     1     2    1
     2     1    26    1
     3     1    27    1
     4     1    28    1
     5     2    25   ar
     6     2     3   ar
     7     3     4   ar
     8     3    29    1
     9     4     5    1
    10     4    23   ar
    11     5     6    2
    12     5     7   am
    13     7     8    1
    14     7    30    1
    15     8     9    1
    16     8    31    1
    17     8    32    1
    18     9    22    1
    19     9    10    1
    20     9    33    1
    21    10    11    1
    22    10    34    1
    23    10    35    1
    24    11    12    1
    25    11    22    1
    26    11    36    1
    27    12    13   am
    28    12    37    1
    29    13    14    2
    30    13    15    1
    31    15    16    1
    32    15    38    1
    33    15    39    1
    34    16    20    1
    35    16    17    2
    36    17    18    1
    37    17    40    1
    38    18    19    2
    39    18    41    1
    40    19    20    1
    41    20    21    1
    42    21    42    1
    43    21    43    1
    44    21    44    1
    45    22    45    1
    46    22    46    1
    47    23    24   ar
    48    24    25   ar
    49    24    47    1
@<TRIPOS>SUBSTRUCTURE
     1 ZINC000992031068        1 TEMP              0 ****  ****    0 ROOT


##########                                Name:    ZINC000011620562
##########                DOCK_Rotatable_Bonds:                   9
##########                         Heavy_Atoms:                  29
##########                    Molecular_Weight:             417.448
##########                DOCK_Rotatable_Bonds:                   9
##########                       Formal_Charge:           0.0299999
##########                     HBond_Acceptors:                  12
##########                        HBond_Donors:                   1
##########                         Heavy_Atoms:                  29
##########                          Grid_Score:          -34.270943
##########                     Grid_vdw_energy:          -32.710781
##########                      Grid_es_energy:           -1.560162
##########           Internal_energy_repulsive:           11.957950

@<TRIPOS>MOLECULE
ZINC000011620562
 48 50 1 0 0
SMALL
USER_CHARGES


@<TRIPOS>ATOM
      1 C1          2.1516   -2.3155   49.0021 C.3     1  ZINC000011620562    0.0400
      2 O2          2.9117   -2.2763   50.2386 O.3     1  ZINC000011620562   -0.3500
      3 C3          3.9279   -1.4016   50.3017 C.2     1  ZINC000011620562    0.4600
      4 O4          4.7282   -1.4695   51.2044 O.2     1  ZINC000011620562   -0.5000
      5 C5          4.0708   -0.3351   49.2467 C.3     1  ZINC000011620562    0.1300
      6 N6          3.0916    0.7270   49.4903 N.am    1  ZINC000011620562   -0.7200
      7 C7          3.3117    1.6371   50.4597 C.2     1  ZINC000011620562    0.5400
      8 O8          4.3211    1.5777   51.1294 O.2     1  ZINC000011620562   -0.5200
      9 C9          2.3035    2.7285   50.7115 C.3     1  ZINC000011620562   -0.1600
     10 S10         0.6350    2.0844   50.4336 S.3     1  ZINC000011620562    0.1400
     11 C11         0.1889    3.0005   48.9961 C.2     1  ZINC000011620562    0.2100
     12 N12         0.9109    3.1451   47.9054 N.2     1  ZINC000011620562   -0.3400
     13 N13         0.2907    3.8738   47.0490 N.2     1  ZINC000011620562   -0.0300
     14 N14        -0.8519    4.2431   47.5175 N.2     1  ZINC000011620562   -0.0800
     15 N15        -0.9653    3.6844   48.8026 N.pl3   1  ZINC000011620562   -0.2600
     16 C16        -2.0434    3.8135   49.6992 C.2     1  ZINC000011620562   -0.1300
     17 C17        -2.0943    4.6406   50.7678 C.2     1  ZINC000011620562    0.2500
     18 C18        -1.0040    5.5846   51.2050 C.3     1  ZINC000011620562   -0.1100
     19 N19        -3.3050    4.4742   51.3846 N.pl3   1  ZINC000011620562   -0.3700
     20 C20        -3.7631    5.1831   52.5820 C.3     1  ZINC000011620562    0.0900
     21 N21        -4.0308    3.5099   50.6733 N.am    1  ZINC000011620562   -0.3600
     22 C22        -5.3168    3.0544   50.9803 C.ar    1  ZINC000011620562    0.1400
     23 C23        -6.3824    3.9449   51.0076 C.ar    1  ZINC000011620562   -0.1300
     24 C24        -7.6514    3.4919   51.3105 C.ar    1  ZINC000011620562   -0.1000
     25 C25        -7.8617    2.1533   51.5865 C.ar    1  ZINC000011620562   -0.1100
     26 C26        -6.8029    1.2641   51.5605 C.ar    1  ZINC000011620562   -0.1000
     27 C27        -5.5324    1.7097   51.2527 C.ar    1  ZINC000011620562   -0.1000
     28 C28        -3.2701    3.1030   49.6368 C.2     1  ZINC000011620562    0.5500
     29 O29        -3.5774    2.2710   48.8025 O.2     1  ZINC000011620562   -0.5000
     30 H30         2.8140   -2.5759   48.1765 H       1  ZINC000011620562    0.0700
     31 H31         1.3623   -3.0628   49.0843 H       1  ZINC000011620562    0.1100
     32 H32         1.7078   -1.3372   48.8172 H       1  ZINC000011620562    0.0700
     33 H33         5.0769    0.0824   49.2859 H       1  ZINC000011620562    0.1200
     34 H34         3.8965   -0.7713   48.2631 H       1  ZINC000011620562    0.1200
     35 H35         2.2849    0.7752   48.9539 H       1  ZINC000011620562    0.4200
     36 H36         2.3925    3.0749   51.7412 H       1  ZINC000011620562    0.1400
     37 H37         2.4902    3.5596   50.0313 H       1  ZINC000011620562    0.1400
     38 H38        -0.1567    5.5013   50.5245 H       1  ZINC000011620562    0.1000
     39 H39        -1.3817    6.6070   51.1917 H       1  ZINC000011620562    0.1000
     40 H40        -0.6852    5.3283   52.2154 H       1  ZINC000011620562    0.1000
     41 H41        -2.9739    5.8466   52.9356 H       1  ZINC000011620562    0.1100
     42 H42        -4.6496    5.7695   52.3402 H       1  ZINC000011620562    0.0900
     43 H43        -4.0067    4.4607   53.3610 H       1  ZINC000011620562    0.0900
     44 H44        -6.2187    4.9906   50.7925 H       1  ZINC000011620562    0.1300
     45 H45        -8.4803    4.1839   51.3323 H       1  ZINC000011620562    0.1300
     46 H46        -8.8551    1.8016   51.8230 H       1  ZINC000011620562    0.1300
     47 H47        -6.9705    0.2195   51.7772 H       1  ZINC000011620562    0.1400
     48 H48        -4.7060    1.0147   51.2323 H       1  ZINC000011620562    0.1400
@<TRIPOS>BOND
     1     1     2    1
     2     1    30    1
     3     1    31    1
     4     1    32    1
     5     2     3    1
     6     3     4    2
     7     3     5    1
     8     5     6    1
     9     5    33    1
    10     5    34    1
    11     6     7   am
    12     6    35    1
    13     7     8    2
    14     7     9    1
    15     9    10    1
    16     9    36    1
    17     9    37    1
    18    10    11    1
    19    11    15    1
    20    11    12    2
    21    12    13    1
    22    13    14    2
    23    14    15    1
    24    15    16    1
    25    16    28    1
    26    16    17    2
    27    17    18    1
    28    17    19    1
    29    18    38    1
    30    18    39    1
    31    18    40    1
    32    19    20    1
    33    19    21    1
    34    20    41    1
    35    20    42    1
    36    20    43    1
    37    21    22    1
    38    21    28   am
    39    22    27   ar
    40    22    23   ar
    41    23    24   ar
    42    23    44    1
    43    24    25   ar
    44    24    45    1
    45    25    26   ar
    46    25    46    1
    47    26    27   ar
    48    26    47    1
    49    27    48    1
    50    28    29    2
@<TRIPOS>SUBSTRUCTURE
     1 ZINC000011620562        1 TEMP              0 ****  ****    0 ROOT


##########                                Name:    ZINC001124460178
##########                DOCK_Rotatable_Bonds:                  12
##########                         Heavy_Atoms:                  22
##########                    Molecular_Weight:             328.479
##########                DOCK_Rotatable_Bonds:                  12
##########                       Formal_Charge:          -0.0100003
##########                     HBond_Acceptors:                   7
##########                        HBond_Donors:                   2
##########                         Heavy_Atoms:                  22
##########                          Grid_Score:          -34.262684
##########                     Grid_vdw_energy:          -33.235554
##########                      Grid_es_energy:           -1.027131
##########           Internal_energy_repulsive:           16.629374

@<TRIPOS>MOLECULE
ZINC001124460178
 50 50 1 0 0
SMALL
USER_CHARGES


@<TRIPOS>ATOM
      1 C1         -0.8294    2.2709   47.1701 C.3     1  ZINC001124460178   -0.0700
      2 C2         -1.7033    2.5522   48.3653 C.2     1  ZINC001124460178    0.3100
      3 N3         -1.2742    3.2813   49.3539 N.2     1  ZINC001124460178   -0.5000
      4 S4         -2.5538    3.3442   50.4707 S.3     1  ZINC001124460178    0.1800
      5 C5         -3.6108    2.3673   49.5234 C.2     1  ZINC001124460178    0.3400
      6 N6         -4.9024    1.9804   49.8321 N.pl3   1  ZINC001124460178   -0.6600
      7 C7         -5.4151    2.1587   51.1928 C.3     1  ZINC001124460178    0.0900
      8 C8         -6.7620    1.4455   51.3278 C.3     1  ZINC001124460178    0.0800
      9 H9         -7.5364    2.0356   50.8379 H       1  ZINC001124460178    0.1200
     10 O10        -6.6831    0.1583   50.7123 O.3     1  ZINC001124460178   -0.5500
     11 C11        -7.1061    1.2820   52.8096 C.3     1  ZINC001124460178    0.0900
     12 N12        -8.5616    1.2903   52.9767 N.am    1  ZINC001124460178   -0.6100
     13 C13        -9.2561    2.5421   53.2881 C.3     1  ZINC001124460178    0.0800
     14 C14        -9.2616    0.1462   52.8442 C.2     1  ZINC001124460178    0.5100
     15 O15        -8.6865   -0.8904   52.5880 O.2     1  ZINC001124460178   -0.5400
     16 C16       -10.7590    0.1550   53.0143 C.3     1  ZINC001124460178   -0.1400
     17 C17       -11.3479   -1.1238   52.4152 C.3     1  ZINC001124460178   -0.1100
     18 C18       -11.3887   -2.2165   53.4855 C.3     1  ZINC001124460178   -0.1200
     19 C19       -12.6417   -2.0411   54.3457 C.3     1  ZINC001124460178   -0.1200
     20 C20       -12.8182   -3.2659   55.2455 C.3     1  ZINC001124460178   -0.1000
     21 C21       -11.6504   -3.3476   56.2306 C.3     1  ZINC001124460178   -0.1500
     22 C22       -14.1317   -3.1443   56.0205 C.3     1  ZINC001124460178   -0.1500
     23 N23        -2.9236    2.0738   48.4398 N.2     1  ZINC001124460178   -0.5800
     24 H24        -0.9782    3.0481   46.4204 H       1  ZINC001124460178    0.0900
     25 H25         0.2158    2.2593   47.4789 H       1  ZINC001124460178    0.0900
     26 H26        -1.0940    1.3021   46.7465 H       1  ZINC001124460178    0.0900
     27 H27        -5.4687    1.5909   49.1475 H       1  ZINC001124460178    0.4200
     28 H28        -4.7073    1.7364   51.9061 H       1  ZINC001124460178    0.0800
     29 H29        -5.5450    3.2218   51.3958 H       1  ZINC001124460178    0.0900
     30 H30        -5.8614   -0.3167   50.8976 H       1  ZINC001124460178    0.3800
     31 H31        -6.7040    0.3366   53.1739 H       1  ZINC001124460178    0.0900
     32 H32        -6.6707    2.1046   53.3767 H       1  ZINC001124460178    0.1000
     33 H33        -9.5426    3.0388   52.3611 H       1  ZINC001124460178    0.0600
     34 H34       -10.1485    2.3260   53.8755 H       1  ZINC001124460178    0.0800
     35 H35        -8.5938    3.1926   53.8592 H       1  ZINC001124460178    0.0800
     36 H36       -11.0039    0.2055   54.0753 H       1  ZINC001124460178    0.0900
     37 H37       -11.1777    1.0220   52.5033 H       1  ZINC001124460178    0.0900
     38 H38       -12.3590   -0.9261   52.0591 H       1  ZINC001124460178    0.0700
     39 H39       -10.7274   -1.4541   51.5822 H       1  ZINC001124460178    0.0700
     40 H40       -11.4117   -3.1947   53.0052 H       1  ZINC001124460178    0.0600
     41 H41       -10.5022   -2.1416   54.1152 H       1  ZINC001124460178    0.0600
     42 H42       -12.5367   -1.1489   54.9630 H       1  ZINC001124460178    0.0600
     43 H43       -13.5138   -1.9358   53.7003 H       1  ZINC001124460178    0.0600
     44 H44       -12.8401   -4.1669   54.6324 H       1  ZINC001124460178    0.0700
     45 H45       -11.6285   -2.4465   56.8436 H       1  ZINC001124460178    0.0500
     46 H46       -11.7761   -4.2202   56.8716 H       1  ZINC001124460178    0.0500
     47 H47       -10.7147   -3.4342   55.6785 H       1  ZINC001124460178    0.0500
     48 H48       -14.9636   -3.0862   55.3186 H       1  ZINC001124460178    0.0600
     49 H49       -14.2575   -4.0170   56.6615 H       1  ZINC001124460178    0.0500
     50 H50       -14.1099   -2.2434   56.6335 H       1  ZINC001124460178    0.0500
@<TRIPOS>BOND
     1     1     2    1
     2     1    24    1
     3     1    25    1
     4     1    26    1
     5     2    23    1
     6     2     3    2
     7     3     4    1
     8     4     5    1
     9     5     6    1
    10     5    23    2
    11     6     7    1
    12     6    27    1
    13     7     8    1
    14     7    28    1
    15     7    29    1
    16     8     9    1
    17     8    10    1
    18     8    11    1
    19    10    30    1
    20    11    12    1
    21    11    31    1
    22    11    32    1
    23    12    13    1
    24    12    14   am
    25    13    33    1
    26    13    34    1
    27    13    35    1
    28    14    15    2
    29    14    16    1
    30    16    17    1
    31    16    36    1
    32    16    37    1
    33    17    18    1
    34    17    38    1
    35    17    39    1
    36    18    19    1
    37    18    40    1
    38    18    41    1
    39    19    20    1
    40    19    42    1
    41    19    43    1
    42    20    21    1
    43    20    22    1
    44    20    44    1
    45    21    45    1
    46    21    46    1
    47    21    47    1
    48    22    48    1
    49    22    49    1
    50    22    50    1
@<TRIPOS>SUBSTRUCTURE
     1 ZINC001124460178        1 TEMP              0 ****  ****    0 ROOT


##########                                Name:    ZINC000062291520
##########                DOCK_Rotatable_Bonds:                  10
##########                         Heavy_Atoms:                  29
##########                    Molecular_Weight:             398.502
##########                DOCK_Rotatable_Bonds:                  10
##########                       Formal_Charge:          -0.0100006
##########                     HBond_Acceptors:                   6
##########                        HBond_Donors:                   1
##########                         Heavy_Atoms:                  29
##########                          Grid_Score:          -34.248074
##########                     Grid_vdw_energy:          -34.213547
##########                      Grid_es_energy:           -0.034528
##########           Internal_energy_repulsive:           17.423450

@<TRIPOS>MOLECULE
ZINC000062291520
 59 61 1 0 0
SMALL
USER_CHARGES


@<TRIPOS>ATOM
      1 C1         -2.9244    2.3777   64.9918 C.3     1  ZINC000062291520    0.0300
      2 O2         -2.1852    1.6597   64.0016 O.3     1  ZINC000062291520   -0.3100
      3 C3         -0.8327    1.6319   64.1405 C.ar    1  ZINC000062291520    0.1000
      4 C4         -0.2307    2.2821   65.2053 C.ar    1  ZINC000062291520   -0.1700
      5 C5          1.1452    2.2575   65.3417 C.ar    1  ZINC000062291520   -0.1200
      6 C6          1.9222    1.5804   64.4209 C.ar    1  ZINC000062291520   -0.1200
      7 C7          1.3270    0.9241   63.3591 C.ar    1  ZINC000062291520   -0.1700
      8 C8         -0.0507    0.9447   63.2165 C.ar    1  ZINC000062291520    0.1000
      9 O9         -0.6375    0.2996   62.1729 O.3     1  ZINC000062291520   -0.3100
     10 C10         0.0988    0.2409   60.9497 C.3     1  ZINC000062291520    0.0700
     11 C11         0.4375    1.6602   60.4896 C.3     1  ZINC000062291520   -0.1400
     12 C12         0.5267    1.6929   58.9856 C.2     1  ZINC000062291520    0.5200
     13 O13         1.5763    1.4365   58.4346 O.2     1  ZINC000062291520   -0.5400
     14 N14        -0.5599    2.0073   58.2529 N.am    1  ZINC000062291520   -0.7200
     15 C15        -0.4737    2.0374   56.7907 C.3     1  ZINC000062291520    0.1600
     16 C16        -1.6257    2.8349   56.2358 C.ar    1  ZINC000062291520   -0.1100
     17 C17        -2.7847    2.9805   56.9745 C.ar    1  ZINC000062291520   -0.1000
     18 C18        -3.8414    3.7126   56.4657 C.ar    1  ZINC000062291520   -0.1200
     19 C19        -3.7388    4.2987   55.2182 C.ar    1  ZINC000062291520   -0.0900
     20 C20        -2.5796    4.1527   54.4790 C.ar    1  ZINC000062291520   -0.0800
     21 C21        -2.4679    4.7915   53.1187 C.3     1  ZINC000062291520    0.0900
     22 N22        -2.7140    3.7810   52.0813 N.3     1  ZINC000062291520   -0.5300
     23 C23        -4.1552    3.5971   51.8564 C.3     1  ZINC000062291520    0.0100
     24 C24        -4.3669    2.4961   50.8138 C.3     1  ZINC000062291520    0.0600
     25 O25        -3.6715    2.8431   49.6134 O.3     1  ZINC000062291520   -0.3800
     26 C26        -2.2653    3.0292   49.7959 C.3     1  ZINC000062291520    0.0900
     27 H27        -1.8181    2.1003   50.1498 H       1  ZINC000062291520    0.0700
     28 C28        -1.6258    3.4293   48.4648 C.3     1  ZINC000062291520   -0.1500
     29 C29        -2.0321    4.1356   50.8281 C.3     1  ZINC000062291520    0.0200
     30 C30        -1.5210    3.4257   54.9902 C.ar    1  ZINC000062291520   -0.0900
     31 H31        -2.7396    1.9388   65.9723 H       1  ZINC000062291520    0.0500
     32 H32        -2.6088    3.4210   64.9953 H       1  ZINC000062291520    0.0600
     33 H33        -3.9886    2.3208   64.7630 H       1  ZINC000062291520    0.1000
     34 H34        -0.8354    2.8120   65.9262 H       1  ZINC000062291520    0.1400
     35 H35         1.6137    2.7683   66.1700 H       1  ZINC000062291520    0.1300
     36 H36         2.9964    1.5635   64.5309 H       1  ZINC000062291520    0.1300
     37 H37         1.9363    0.3950   62.6413 H       1  ZINC000062291520    0.1400
     38 H38        -0.5024   -0.2545   60.1872 H       1  ZINC000062291520    0.0700
     39 H39         1.0203   -0.3197   61.1068 H       1  ZINC000062291520    0.0700
     40 H40         1.3937    1.9622   60.9170 H       1  ZINC000062291520    0.1100
     41 H41        -0.3419    2.3458   60.8223 H       1  ZINC000062291520    0.1100
     42 H42        -1.3990    2.2136   58.6935 H       1  ZINC000062291520    0.4000
     43 H43         0.4665    2.5008   56.4916 H       1  ZINC000062291520    0.0800
     44 H44        -0.5164    1.0195   56.4031 H       1  ZINC000062291520    0.0800
     45 H45        -2.8647    2.5229   57.9495 H       1  ZINC000062291520    0.1200
     46 H46        -4.7470    3.8267   57.0431 H       1  ZINC000062291520    0.1300
     47 H47        -4.5644    4.8706   54.8207 H       1  ZINC000062291520    0.1200
     48 H48        -3.2050    5.5897   53.0306 H       1  ZINC000062291520    0.0500
     49 H49        -1.4674    5.2054   52.9928 H       1  ZINC000062291520    0.0900
     50 H50        -4.6358    3.3101   52.7916 H       1  ZINC000062291520    0.0900
     51 H51        -4.5890    4.5295   51.4953 H       1  ZINC000062291520    0.0400
     52 H52        -3.9810    1.5518   51.1981 H       1  ZINC000062291520    0.0600
     53 H53        -5.4314    2.3956   50.6017 H       1  ZINC000062291520    0.1000
     54 H54        -2.0723    4.3590   48.1122 H       1  ZINC000062291520    0.0600
     55 H55        -0.5542    3.5710   48.6046 H       1  ZINC000062291520    0.0700
     56 H56        -1.7955    2.6429   47.7293 H       1  ZINC000062291520    0.0700
     57 H57        -2.4319    5.0764   50.4498 H       1  ZINC000062291520    0.0400
     58 H58        -0.9632    4.2417   51.0128 H       1  ZINC000062291520    0.0900
     59 H59        -0.6138    3.3156   54.4148 H       1  ZINC000062291520    0.1200
@<TRIPOS>BOND
     1     1     2    1
     2     1    31    1
     3     1    32    1
     4     1    33    1
     5     2     3    1
     6     3     8   ar
     7     3     4   ar
     8     4     5   ar
     9     4    34    1
    10     5     6   ar
    11     5    35    1
    12     6     7   ar
    13     6    36    1
    14     7     8   ar
    15     7    37    1
    16     8     9    1
    17     9    10    1
    18    10    11    1
    19    10    38    1
    20    10    39    1
    21    11    12    1
    22    11    40    1
    23    11    41    1
    24    12    13    2
    25    12    14   am
    26    14    15    1
    27    14    42    1
    28    15    16    1
    29    15    43    1
    30    15    44    1
    31    16    30   ar
    32    16    17   ar
    33    17    18   ar
    34    17    45    1
    35    18    19   ar
    36    18    46    1
    37    19    20   ar
    38    19    47    1
    39    20    21    1
    40    20    30   ar
    41    21    22    1
    42    21    48    1
    43    21    49    1
    44    22    29    1
    45    22    23    1
    46    23    24    1
    47    23    50    1
    48    23    51    1
    49    24    25    1
    50    24    52    1
    51    24    53    1
    52    25    26    1
    53    26    27    1
    54    26    28    1
    55    26    29    1
    56    28    54    1
    57    28    55    1
    58    28    56    1
    59    29    57    1
    60    29    58    1
    61    30    59    1
@<TRIPOS>SUBSTRUCTURE
     1 ZINC000062291520        1 TEMP              0 ****  ****    0 ROOT


##########                                Name:    ZINC000033150761
##########                DOCK_Rotatable_Bonds:                   7
##########                         Heavy_Atoms:                  29
##########                    Molecular_Weight:             413.407
##########                DOCK_Rotatable_Bonds:                   7
##########                       Formal_Charge:          0.00999993
##########                     HBond_Acceptors:                  10
##########                        HBond_Donors:                   1
##########                         Heavy_Atoms:                  29
##########                          Grid_Score:          -34.072769
##########                     Grid_vdw_energy:          -31.055992
##########                      Grid_es_energy:           -3.016775
##########           Internal_energy_repulsive:            5.466012

@<TRIPOS>MOLECULE
ZINC000033150761
 42 45 1 0 0
SMALL
USER_CHARGES


@<TRIPOS>ATOM
      1 O1          0.7823    3.4364   57.9030 O.2     1  ZINC000033150761   -0.5000
      2 C2          0.3208    2.4542   58.4446 C.2     1  ZINC000033150761    0.5200
      3 C3          1.0927    1.7654   59.5404 C.3     1  ZINC000033150761   -0.1300
      4 C4          0.2019    1.6159   60.7754 C.3     1  ZINC000033150761   -0.0100
      5 C5          0.2023    0.1772   61.2240 C.2     1  ZINC000033150761    0.1800
      6 N6          1.0717   -0.3879   62.0240 N.2     1  ZINC000033150761   -0.4400
      7 C7          0.6748   -1.6752   62.1403 C.2     1  ZINC000033150761    0.2200
      8 C8          1.3371   -2.7324   62.9456 C.ar    1  ZINC000033150761    0.1900
      9 C9          2.5784   -2.4832   63.5245 C.ar    1  ZINC000033150761   -0.1300
     10 C10         3.1840   -3.4788   64.2731 C.ar    1  ZINC000033150761   -0.0700
     11 C11         2.5263   -4.6913   64.4169 C.ar    1  ZINC000033150761   -0.1500
     12 C12         1.2940   -4.8702   63.8136 C.ar    1  ZINC000033150761    0.1100
     13 N13         0.7385   -3.9043   63.1117 N.ar    1  ZINC000033150761   -0.4500
     14 N14        -0.4013   -1.8149   61.4114 N.2     1  ZINC000033150761   -0.3600
     15 O15        -0.6878   -0.7605   60.8847 O.3     1  ZINC000033150761    0.0900
     16 N16        -0.8848    1.9820   58.0704 N.am    1  ZINC000033150761   -0.6200
     17 C17        -1.5965    2.6172   57.0600 C.2     1  ZINC000033150761    0.2700
     18 N18        -1.2326    2.6879   55.8175 N.2     1  ZINC000033150761   -0.5000
     19 C19        -2.0397    3.3366   54.9899 C.2     1  ZINC000033150761    0.1200
     20 C20        -1.7387    3.4882   53.5453 C.ar    1  ZINC000033150761    0.0000
     21 C21        -2.7538    3.3452   52.6014 C.ar    1  ZINC000033150761   -0.0800
     22 C22        -2.4704    3.4873   51.2580 C.ar    1  ZINC000033150761   -0.1200
     23 C23        -1.1794    3.7717   50.8463 C.ar    1  ZINC000033150761    0.0700
     24 F24        -0.9069    3.9099   49.5304 F       1  ZINC000033150761   -0.1300
     25 C25        -0.1646    3.9156   51.7820 C.ar    1  ZINC000033150761    0.0700
     26 F26         1.0935    4.1936   51.3757 F       1  ZINC000033150761   -0.1300
     27 C27        -0.4408    3.7798   53.1287 C.ar    1  ZINC000033150761   -0.1000
     28 C28        -3.1505    3.8476   55.5502 C.2     1  ZINC000033150761   -0.2800
     29 S29        -3.1371    3.4452   57.2658 S.3     1  ZINC000033150761    0.2200
     30 H30         1.4080    0.7795   59.1984 H       1  ZINC000033150761    0.1200
     31 H31         1.9704    2.3594   59.7953 H       1  ZINC000033150761    0.1200
     32 H32         0.5844    2.2469   61.5777 H       1  ZINC000033150761    0.1300
     33 H33        -0.8155    1.9193   60.5283 H       1  ZINC000033150761    0.1200
     34 H34         3.0624   -1.5269   63.3916 H       1  ZINC000033150761    0.1400
     35 H35         4.1468   -3.3148   64.7340 H       1  ZINC000033150761    0.1500
     36 H36         2.9717   -5.4883   64.9940 H       1  ZINC000033150761    0.1400
     37 H37         0.7788   -5.8129   63.9234 H       1  ZINC000033150761    0.1700
     38 H38        -1.2556    1.1988   58.5063 H       1  ZINC000033150761    0.4300
     39 H39        -3.7613    3.1230   52.9206 H       1  ZINC000033150761    0.1400
     40 H40        -3.2571    3.3761   50.5265 H       1  ZINC000033150761    0.1500
     41 H41         0.3488    3.8918   53.8570 H       1  ZINC000033150761    0.1600
     42 H42        -3.9202    4.4043   55.0364 H       1  ZINC000033150761    0.1800
@<TRIPOS>BOND
     1     1     2    2
     2     2     3    1
     3     2    16   am
     4     3     4    1
     5     3    30    1
     6     3    31    1
     7     4     5    1
     8     4    32    1
     9     4    33    1
    10     5    15    1
    11     5     6    2
    12     6     7    1
    13     7     8    1
    14     7    14    2
    15     8    13   ar
    16     8     9   ar
    17     9    10   ar
    18     9    34    1
    19    10    11   ar
    20    10    35    1
    21    11    12   ar
    22    11    36    1
    23    12    13   ar
    24    12    37    1
    25    14    15    1
    26    16    17    1
    27    16    38    1
    28    17    29    1
    29    17    18    2
    30    18    19    1
    31    19    20    1
    32    19    28    2
    33    20    27   ar
    34    20    21   ar
    35    21    22   ar
    36    21    39    1
    37    22    23   ar
    38    22    40    1
    39    23    24    1
    40    23    25   ar
    41    25    26    1
    42    25    27   ar
    43    27    41    1
    44    28    29    1
    45    28    42    1
@<TRIPOS>SUBSTRUCTURE
     1 ZINC000033150761        1 TEMP              0 ****  ****    0 ROOT


##########                                Name:    ZINC000434204837
##########                DOCK_Rotatable_Bonds:                   7
##########                         Heavy_Atoms:                  29
##########                    Molecular_Weight:             406.511
##########                DOCK_Rotatable_Bonds:                   7
##########                       Formal_Charge:          -0.0200002
##########                     HBond_Acceptors:                   8
##########                        HBond_Donors:                   0
##########                         Heavy_Atoms:                  29
##########                          Grid_Score:          -33.962006
##########                     Grid_vdw_energy:          -33.733780
##########                      Grid_es_energy:           -0.228224
##########           Internal_energy_repulsive:           16.431238

@<TRIPOS>MOLECULE
ZINC000434204837
 51 54 1 0 0
SMALL
USER_CHARGES


@<TRIPOS>ATOM
      1 C1         -7.8954   -0.0717   52.4374 C.3     1  ZINC000434204837   -0.1300
      2 C2         -7.5503    1.3662   52.7282 C.ar    1  ZINC000434204837   -0.0700
      3 C3         -8.0833    1.9939   53.8381 C.ar    1  ZINC000434204837   -0.1200
      4 C4         -7.7666    3.3131   54.1049 C.ar    1  ZINC000434204837   -0.1100
      5 C5         -6.9169    4.0039   53.2618 C.ar    1  ZINC000434204837   -0.1300
      6 C6         -6.3830    3.3757   52.1519 C.ar    1  ZINC000434204837   -0.0900
      7 C7         -6.6961    2.0556   51.8876 C.ar    1  ZINC000434204837   -0.1000
      8 C8         -6.1142    1.3709   50.6779 C.3     1  ZINC000434204837    0.0100
      9 C9         -4.7497    1.9401   50.3862 C.2     1  ZINC000434204837    0.2000
     10 N10        -4.1956    2.0743   49.2053 N.2     1  ZINC000434204837   -0.4600
     11 C11        -2.9884    2.6221   49.4319 C.2     1  ZINC000434204837    0.1700
     12 C12        -1.9598    2.9765   48.3892 C.3     1  ZINC000434204837   -0.0300
     13 S13        -0.9861    4.3920   48.9590 S.3     1  ZINC000434204837    0.0900
     14 C14         0.0198    4.6634   47.5379 C.2     1  ZINC000434204837    0.2100
     15 N15        -0.1411    5.6058   46.6341 N.2     1  ZINC000434204837   -0.3300
     16 N16         0.7667    5.5218   45.7298 N.2     1  ZINC000434204837   -0.0200
     17 N17         1.5616    4.5387   45.9809 N.2     1  ZINC000434204837   -0.0700
     18 N18         1.1101    3.9434   47.1719 N.pl3   1  ZINC000434204837   -0.3100
     19 C19         1.6629    2.8383   47.8346 C.ar    1  ZINC000434204837    0.1100
     20 C20         2.0616    2.9499   49.1597 C.ar    1  ZINC000434204837   -0.1100
     21 C21         2.6054    1.8595   49.8101 C.ar    1  ZINC000434204837   -0.0900
     22 C22         2.7533    0.6576   49.1424 C.ar    1  ZINC000434204837   -0.0600
     23 C23         3.3469   -0.5303   49.8549 C.3     1  ZINC000434204837   -0.0600
     24 C24         2.3242   -1.6677   49.8896 C.3     1  ZINC000434204837   -0.1500
     25 C25         4.6017   -0.9952   49.1130 C.3     1  ZINC000434204837   -0.1500
     26 C26         2.3571    0.5434   47.8226 C.ar    1  ZINC000434204837   -0.1000
     27 C27         1.8074    1.6288   47.1687 C.ar    1  ZINC000434204837   -0.0900
     28 N28        -2.8720    2.7900   50.7152 N.2     1  ZINC000434204837   -0.3600
     29 O29        -3.8753    2.4099   51.2811 O.3     1  ZINC000434204837    0.0900
     30 H30        -7.1762   -0.7250   52.9313 H       1  ZINC000434204837    0.0800
     31 H31        -8.8971   -0.2873   52.8092 H       1  ZINC000434204837    0.0700
     32 H32        -7.8626   -0.2428   51.3614 H       1  ZINC000434204837    0.0700
     33 H33        -8.7473    1.4541   54.4970 H       1  ZINC000434204837    0.1300
     34 H34        -8.1838    3.8038   54.9719 H       1  ZINC000434204837    0.1200
     35 H35        -6.6700    5.0346   53.4698 H       1  ZINC000434204837    0.1300
     36 H36        -5.7192    3.9156   51.4929 H       1  ZINC000434204837    0.1300
     37 H37        -6.0280    0.3017   50.8719 H       1  ZINC000434204837    0.1200
     38 H38        -6.7664    1.5330   49.8198 H       1  ZINC000434204837    0.1200
     39 H39        -1.3003    2.1244   48.2248 H       1  ZINC000434204837    0.1300
     40 H40        -2.4617    3.2328   47.4562 H       1  ZINC000434204837    0.1400
     41 H41         1.9470    3.8886   49.6814 H       1  ZINC000434204837    0.1400
     42 H42         2.9157    1.9457   50.8409 H       1  ZINC000434204837    0.1400
     43 H43         3.6111   -0.2479   50.8740 H       1  ZINC000434204837    0.0800
     44 H44         2.0600   -1.9499   48.8704 H       1  ZINC000434204837    0.0600
     45 H45         2.7536   -2.5268   50.4049 H       1  ZINC000434204837    0.0600
     46 H46         1.4302   -1.3364   50.4182 H       1  ZINC000434204837    0.0600
     47 H47         5.3304   -0.1849   49.0882 H       1  ZINC000434204837    0.0600
     48 H48         5.0311   -1.8543   49.6283 H       1  ZINC000434204837    0.0600
     49 H49         4.3375   -1.2775   48.0939 H       1  ZINC000434204837    0.0600
     50 H50         2.4742   -0.3965   47.3036 H       1  ZINC000434204837    0.1400
     51 H51         1.4981    1.5389   46.1379 H       1  ZINC000434204837    0.1400
@<TRIPOS>BOND
     1     1     2    1
     2     1    30    1
     3     1    31    1
     4     1    32    1
     5     2     7   ar
     6     2     3   ar
     7     3     4   ar
     8     3    33    1
     9     4     5   ar
    10     4    34    1
    11     5     6   ar
    12     5    35    1
    13     6     7   ar
    14     6    36    1
    15     7     8    1
    16     8     9    1
    17     8    37    1
    18     8    38    1
    19     9    29    1
    20     9    10    2
    21    10    11    1
    22    11    12    1
    23    11    28    2
    24    12    13    1
    25    12    39    1
    26    12    40    1
    27    13    14    1
    28    14    18    1
    29    14    15    2
    30    15    16    1
    31    16    17    2
    32    17    18    1
    33    18    19    1
    34    19    27   ar
    35    19    20   ar
    36    20    21   ar
    37    20    41    1
    38    21    22   ar
    39    21    42    1
    40    22    23    1
    41    22    26   ar
    42    23    24    1
    43    23    25    1
    44    23    43    1
    45    24    44    1
    46    24    45    1
    47    24    46    1
    48    25    47    1
    49    25    48    1
    50    25    49    1
    51    26    27   ar
    52    26    50    1
    53    27    51    1
    54    28    29    1
@<TRIPOS>SUBSTRUCTURE
     1 ZINC000434204837        1 TEMP              0 ****  ****    0 ROOT


##########                                Name:    ZINC000150894060
##########                DOCK_Rotatable_Bonds:                  10
##########                         Heavy_Atoms:                  27
##########                    Molecular_Weight:              366.42
##########                DOCK_Rotatable_Bonds:                  10
##########                       Formal_Charge:        -6.70552e-07
##########                     HBond_Acceptors:                   7
##########                        HBond_Donors:                   2
##########                         Heavy_Atoms:                  27
##########                          Grid_Score:          -33.911488
##########                     Grid_vdw_energy:          -32.719177
##########                      Grid_es_energy:           -1.192309
##########           Internal_energy_repulsive:           11.332749

@<TRIPOS>MOLECULE
ZINC000150894060
 49 51 1 0 0
SMALL
USER_CHARGES


@<TRIPOS>ATOM
      1 C1          3.9271   -1.5830   49.4581 C.3     1  ZINC000150894060   -0.1000
      2 C2          3.6674   -0.1811   49.9463 C.2     1  ZINC000150894060   -0.0800
      3 C3          2.7581    0.7028   49.4400 C.2     1  ZINC000150894060   -0.1000
      4 C4          1.8516    0.4565   48.3138 C.2     1  ZINC000150894060    0.6100
      5 O5          1.7175   -0.6710   47.8760 O.2     1  ZINC000150894060   -0.5100
      6 N6          1.1672    1.4788   47.7636 N.am    1  ZINC000150894060   -0.7200
      7 C7          0.2603    1.2325   46.6397 C.3     1  ZINC000150894060    0.1200
      8 C8         -0.7884    2.3448   46.5773 C.3     1  ZINC000150894060   -0.1500
      9 C9         -1.9848    1.9674   47.4531 C.3     1  ZINC000150894060    0.1200
     10 N10        -1.8602    2.6213   48.7582 N.am    1  ZINC000150894060   -0.7300
     11 C11        -2.8492    2.5067   49.6665 C.2     1  ZINC000150894060    0.5600
     12 O12        -3.8440    1.8594   49.4035 O.2     1  ZINC000150894060   -0.5300
     13 C13        -2.7243    3.1680   50.9829 C.ar    1  ZINC000150894060   -0.1300
     14 C14        -1.5951    3.9333   51.2784 C.ar    1  ZINC000150894060   -0.0900
     15 C15        -1.4850    4.5483   52.5085 C.ar    1  ZINC000150894060   -0.0900
     16 C16        -2.4905    4.4073   53.4483 C.ar    1  ZINC000150894060   -0.0800
     17 C17        -2.3632    5.0814   54.7900 C.3     1  ZINC000150894060    0.1700
     18 N18        -2.0290    4.0827   55.8085 N.pl3   1  ZINC000150894060   -0.3700
     19 C19        -2.2056    4.2165   57.1397 C.2     1  ZINC000150894060    0.0500
     20 C20        -1.7733    3.0780   57.7295 C.2     1  ZINC000150894060   -0.2700
     21 C21        -1.3171    2.2190   56.7244 C.2     1  ZINC000150894060    0.0400
     22 N22        -1.4756    2.8178   55.5719 N.2     1  ZINC000150894060   -0.2900
     23 C23        -3.6127    3.6505   53.1615 C.ar    1  ZINC000150894060   -0.1100
     24 C24        -3.7378    3.0346   51.9334 C.ar    1  ZINC000150894060   -0.0600
     25 O25         2.8396    1.8424   50.1576 O.3     1  ZINC000150894060   -0.1700
     26 C26         3.7761    1.7051   51.1051 C.2     1  ZINC000150894060    0.0000
     27 C27         4.3092    0.4668   51.0132 C.2     1  ZINC000150894060   -0.2300
     28 H28         3.2758   -2.2786   49.9874 H       1  ZINC000150894060    0.0800
     29 H29         3.7250   -1.6386   48.3884 H       1  ZINC000150894060    0.0900
     30 H30         4.9682   -1.8460   49.6454 H       1  ZINC000150894060    0.0700
     31 H31         1.2749    2.3778   48.1118 H       1  ZINC000150894060    0.4100
     32 H32         0.8294    1.2172   45.7102 H       1  ZINC000150894060    0.0800
     33 H33        -0.2365    0.2721   46.7773 H       1  ZINC000150894060    0.0800
     34 H34        -0.3525    3.2760   46.9393 H       1  ZINC000150894060    0.0800
     35 H35        -1.1191    2.4750   45.5469 H       1  ZINC000150894060    0.0800
     36 H36        -2.9059    2.2931   46.9700 H       1  ZINC000150894060    0.0800
     37 H37        -2.0086    0.8862   47.5893 H       1  ZINC000150894060    0.0800
     38 H38        -1.0659    3.1368   48.9686 H       1  ZINC000150894060    0.4000
     39 H39        -0.8091    4.0435   50.5460 H       1  ZINC000150894060    0.1300
     40 H40        -0.6117    5.1407   52.7384 H       1  ZINC000150894060    0.1300
     41 H41        -1.5749    5.8330   54.7458 H       1  ZINC000150894060    0.1100
     42 H42        -3.3079    5.5605   55.0471 H       1  ZINC000150894060    0.1000
     43 H43        -2.6176    5.0782   57.6439 H       1  ZINC000150894060    0.1700
     44 H44        -1.7791    2.8696   58.7892 H       1  ZINC000150894060    0.1500
     45 H45        -0.9093    1.2301   56.8735 H       1  ZINC000150894060    0.1800
     46 H46        -4.3942    3.5446   53.8993 H       1  ZINC000150894060    0.1300
     47 H47        -4.6143    2.4444   51.7106 H       1  ZINC000150894060    0.1400
     48 H48         4.0561    2.4585   51.8265 H       1  ZINC000150894060    0.2100
     49 H49         5.0875    0.0554   51.6389 H       1  ZINC000150894060    0.1600
@<TRIPOS>BOND
     1     1     2    1
     2     1    28    1
     3     1    29    1
     4     1    30    1
     5     2    27    1
     6     2     3    2
     7     3     4    1
     8     3    25    1
     9     4     5    2
    10     4     6   am
    11     6     7    1
    12     6    31    1
    13     7     8    1
    14     7    32    1
    15     7    33    1
    16     8     9    1
    17     8    34    1
    18     8    35    1
    19     9    10    1
    20     9    36    1
    21     9    37    1
    22    10    11   am
    23    10    38    1
    24    11    12    2
    25    11    13    1
    26    13    24   ar
    27    13    14   ar
    28    14    15   ar
    29    14    39    1
    30    15    16   ar
    31    15    40    1
    32    16    17    1
    33    16    23   ar
    34    17    18    1
    35    17    41    1
    36    17    42    1
    37    18    22    1
    38    18    19    1
    39    19    20    2
    40    19    43    1
    41    20    21    1
    42    20    44    1
    43    21    22    2
    44    21    45    1
    45    23    24   ar
    46    23    46    1
    47    24    47    1
    48    25    26    1
    49    26    27    2
    50    26    48    1
    51    27    49    1
@<TRIPOS>SUBSTRUCTURE
     1 ZINC000150894060        1 TEMP              0 ****  ****    0 ROOT


##########                                Name:    ZINC000467185792
##########                DOCK_Rotatable_Bonds:                   9
##########                         Heavy_Atoms:                  29
##########                    Molecular_Weight:             412.513
##########                DOCK_Rotatable_Bonds:                   9
##########                       Formal_Charge:                0.04
##########                     HBond_Acceptors:                   8
##########                        HBond_Donors:                   2
##########                         Heavy_Atoms:                  29
##########                          Grid_Score:          -33.896652
##########                     Grid_vdw_energy:          -31.237804
##########                      Grid_es_energy:           -2.658849
##########           Internal_energy_repulsive:           28.126844

@<TRIPOS>MOLECULE
ZINC000467185792
 53 55 1 0 0
SMALL
USER_CHARGES


@<TRIPOS>ATOM
      1 C1         -7.7113    2.2247   66.0257 C.3     1  ZINC000467185792   -0.1500
      2 C2         -7.7705    1.3586   64.7659 C.3     1  ZINC000467185792   -0.1200
      3 C3         -9.2023    0.8619   64.5554 C.3     1  ZINC000467185792    0.0600
      4 O4         -9.2588    0.0574   63.3757 O.3     1  ZINC000467185792   -0.3100
      5 C5         -9.0779    0.6914   62.1872 C.ar    1  ZINC000467185792    0.1400
      6 C6         -9.2194    2.0701   62.1092 C.ar    1  ZINC000467185792   -0.2100
      7 C7         -9.0361    2.7166   60.9047 C.ar    1  ZINC000467185792   -0.0400
      8 C8         -8.7085    1.9839   59.7649 C.ar    1  ZINC000467185792   -0.0600
      9 C9         -8.5101    2.6761   58.4680 C.2     1  ZINC000467185792    0.1400
     10 C10        -9.0504    3.8795   58.2055 C.2     1  ZINC000467185792   -0.3000
     11 S11        -8.5813    4.3499   56.5734 S.3     1  ZINC000467185792    0.2000
     12 C12        -7.6821    2.8459   56.3978 C.2     1  ZINC000467185792    0.2800
     13 N13        -6.9710    2.4632   55.2686 N.am    1  ZINC000467185792   -0.6100
     14 C14        -7.5261    2.5914   54.0471 C.2     1  ZINC000467185792    0.5900
     15 O15        -8.6499    3.0422   53.9343 O.2     1  ZINC000467185792   -0.4900
     16 C16        -6.7712    2.1852   52.8486 C.2     1  ZINC000467185792   -0.2400
     17 C17        -5.7812    3.0016   52.3054 C.2     1  ZINC000467185792    0.0800
     18 C18        -5.4460    4.3329   52.9268 C.3     1  ZINC000467185792   -0.1200
     19 C19        -6.3102    5.4243   52.2917 C.3     1  ZINC000467185792   -0.1400
     20 C20        -5.1069    2.5479   51.1652 C.2     1  ZINC000467185792    0.0600
     21 C21        -4.0288    3.4002   50.5466 C.3     1  ZINC000467185792   -0.0600
     22 C22        -3.4443    2.6796   49.3301 C.3     1  ZINC000467185792   -0.1500
     23 N23        -5.4032    1.3932   50.6336 N.2     1  ZINC000467185792   -0.1800
     24 N24        -6.3080    0.6176   51.1077 N.am    1  ZINC000467185792   -0.4300
     25 C25        -7.0207    0.9408   52.2038 C.2     1  ZINC000467185792    0.5000
     26 O26        -7.8748    0.1834   52.6315 O.2     1  ZINC000467185792   -0.5300
     27 N27        -7.7836    2.1538   57.4901 N.2     1  ZINC000467185792   -0.5000
     28 C28        -8.5671    0.5996   59.8466 C.ar    1  ZINC000467185792   -0.0600
     29 C29        -8.7466   -0.0404   61.0552 C.ar    1  ZINC000467185792   -0.1500
     30 H30        -8.0214    1.6340   66.8876 H       1  ZINC000467185792    0.0600
     31 H31        -6.6913    2.5785   66.1757 H       1  ZINC000467185792    0.0700
     32 H32        -8.3790    3.0786   65.9114 H       1  ZINC000467185792    0.0600
     33 H33        -7.4605    1.9493   63.9039 H       1  ZINC000467185792    0.0700
     34 H34        -7.1028    0.5046   64.8804 H       1  ZINC000467185792    0.0700
     35 H35        -9.5110    0.2677   65.4155 H       1  ZINC000467185792    0.0600
     36 H36        -9.8706    1.7159   64.4450 H       1  ZINC000467185792    0.0600
     37 H37        -9.4737    2.6371   62.9925 H       1  ZINC000467185792    0.1300
     38 H38        -9.1467    3.7893   60.8445 H       1  ZINC000467185792    0.1300
     39 H39        -9.6659    4.4577   58.8788 H       1  ZINC000467185792    0.1800
     40 H40        -6.0746    2.1037   55.3587 H       1  ZINC000467185792    0.4400
     41 H41        -5.6409    4.2930   53.9985 H       1  ZINC000467185792    0.0900
     42 H42        -4.3932    4.5585   52.7570 H       1  ZINC000467185792    0.1300
     43 H43        -6.1153    5.4642   51.2200 H       1  ZINC000467185792    0.0600
     44 H44        -7.3630    5.1988   52.4615 H       1  ZINC000467185792    0.0600
     45 H45        -6.0677    6.3872   52.7412 H       1  ZINC000467185792    0.0700
     46 H46        -4.4543    4.3539   50.2343 H       1  ZINC000467185792    0.1000
     47 H47        -3.2403    3.5762   51.2782 H       1  ZINC000467185792    0.1000
     48 H48        -2.6646    3.2961   48.8827 H       1  ZINC000467185792    0.0600
     49 H49        -3.0190    1.7259   49.6424 H       1  ZINC000467185792    0.0600
     50 H50        -4.2328    2.5036   48.5985 H       1  ZINC000467185792    0.0600
     51 H51        -6.4812   -0.2286   50.6662 H       1  ZINC000467185792    0.4500
     52 H52        -8.3137    0.0292   58.9652 H       1  ZINC000467185792    0.1300
     53 H53        -8.6368   -1.1128   61.1192 H       1  ZINC000467185792    0.1400
@<TRIPOS>BOND
     1     1     2    1
     2     1    30    1
     3     1    31    1
     4     1    32    1
     5     2     3    1
     6     2    33    1
     7     2    34    1
     8     3     4    1
     9     3    35    1
    10     3    36    1
    11     4     5    1
    12     5    29   ar
    13     5     6   ar
    14     6     7   ar
    15     6    37    1
    16     7     8   ar
    17     7    38    1
    18     8     9    1
    19     8    28   ar
    20     9    27    1
    21     9    10    2
    22    10    11    1
    23    10    39    1
    24    11    12    1
    25    12    13    1
    26    12    27    2
    27    13    14   am
    28    13    40    1
    29    14    15    2
    30    14    16    1
    31    16    25    1
    32    16    17    2
    33    17    18    1
    34    17    20    1
    35    18    19    1
    36    18    41    1
    37    18    42    1
    38    19    43    1
    39    19    44    1
    40    19    45    1
    41    20    21    1
    42    20    23    2
    43    21    22    1
    44    21    46    1
    45    21    47    1
    46    22    48    1
    47    22    49    1
    48    22    50    1
    49    23    24    1
    50    24    25   am
    51    24    51    1
    52    25    26    2
    53    28    29   ar
    54    28    52    1
    55    29    53    1
@<TRIPOS>SUBSTRUCTURE
     1 ZINC000467185792        1 TEMP              0 ****  ****    0 ROOT


##########                                Name:    ZINC001596273020
##########                DOCK_Rotatable_Bonds:                  11
##########                         Heavy_Atoms:                  25
##########                    Molecular_Weight:             355.478
##########                DOCK_Rotatable_Bonds:                  11
##########                       Formal_Charge:          -0.0499996
##########                     HBond_Acceptors:                   7
##########                        HBond_Donors:                   2
##########                         Heavy_Atoms:                  25
##########                          Grid_Score:          -33.837025
##########                     Grid_vdw_energy:          -31.985088
##########                      Grid_es_energy:           -1.851935
##########           Internal_energy_repulsive:           23.715744

@<TRIPOS>MOLECULE
ZINC001596273020
 58 59 1 0 0
SMALL
USER_CHARGES


@<TRIPOS>ATOM
      1 C1         -7.0494   -1.3289   51.7777 C.3     1  ZINC001596273020   -0.1900
      2 C2         -6.4454   -0.2140   50.9215 C.3     1  ZINC001596273020   -0.0200
      3 N3         -7.0798    1.0656   51.2653 N.4     1  ZINC001596273020   -0.3900
      4 H4         -8.0648    1.0210   51.0510 H       1  ZINC001596273020    0.4300
      5 C5         -6.9023    1.3306   52.6993 C.3     1  ZINC001596273020   -0.0100
      6 C6         -7.6061    2.6382   53.0672 C.3     1  ZINC001596273020   -0.1900
      7 C7         -6.4579    2.1452   50.4871 C.3     1  ZINC001596273020   -0.0100
      8 C8         -4.9440    2.1262   50.7078 C.3     1  ZINC001596273020    0.0300
      9 O9         -4.3709    3.3244   50.1806 O.3     1  ZINC001596273020   -0.3900
     10 C10        -2.9462    3.2894   50.0746 C.3     1  ZINC001596273020    0.0500
     11 C11        -2.5440    2.3934   48.9014 C.3     1  ZINC001596273020    0.1400
     12 N12        -1.1339    2.6196   48.5750 N.am    1  ZINC001596273020   -0.7500
     13 C13        -0.5954    2.0475   47.4800 C.2     1  ZINC001596273020    0.7200
     14 O14        -1.2796    1.3422   46.7638 O.2     1  ZINC001596273020   -0.6000
     15 N15         0.7014    2.2570   47.1788 N.am    1  ZINC001596273020   -0.6300
     16 C16         1.6886    3.0720   47.9291 C.3     1  ZINC001596273020    0.1100
     17 C17         2.9841    2.2114   47.8813 C.3     1  ZINC001596273020   -0.0800
     18 H18         3.8577    2.8628   47.8567 H       1  ZINC001596273020    0.1200
     19 C19         3.0142    1.3625   49.1365 C.3     1  ZINC001596273020   -0.1000
     20 C20         3.7370    0.0376   48.9376 C.3     1  ZINC001596273020   -0.1200
     21 C21         3.0241   -0.7292   47.8158 C.3     1  ZINC001596273020   -0.1200
     22 C22         3.2744    0.0221   46.5122 C.3     1  ZINC001596273020   -0.0800
     23 C23         2.8720    1.4579   46.5743 C.3     1  ZINC001596273020   -0.1400
     24 C24         3.7862    2.1808   45.6190 C.2     1  ZINC001596273020    0.5000
     25 O25         4.4087    1.5540   44.7786 O.co2   1  ZINC001596273020   -0.6900
     26 O26         3.9036    3.3926   45.6865 O.co2   1  ZINC001596273020   -0.6900
     27 C27         1.4649    1.7196   46.0263 C.3     1  ZINC001596273020    0.1600
     28 H28        -6.7833   -1.1693   52.8225 H       1  ZINC001596273020    0.0800
     29 H29        -8.1344   -1.3197   51.6736 H       1  ZINC001596273020    0.0800
     30 H30        -6.6608   -2.2921   51.4468 H       1  ZINC001596273020    0.1000
     31 H31        -5.3738   -0.1507   51.1107 H       1  ZINC001596273020    0.1300
     32 H32        -6.6161   -0.4325   49.8673 H       1  ZINC001596273020    0.1300
     33 H33        -7.3321    0.5117   53.2761 H       1  ZINC001596273020    0.1300
     34 H34        -5.8390    1.4144   52.9243 H       1  ZINC001596273020    0.1300
     35 H35        -7.1049    3.4717   52.5750 H       1  ZINC001596273020    0.0800
     36 H36        -8.6454    2.5955   52.7415 H       1  ZINC001596273020    0.0800
     37 H37        -7.5694    2.7790   54.1475 H       1  ZINC001596273020    0.1000
     38 H38        -6.6727    2.0001   49.4284 H       1  ZINC001596273020    0.1400
     39 H39        -6.8603    3.1050   50.8113 H       1  ZINC001596273020    0.1400
     40 H40        -4.7332    2.0617   51.7752 H       1  ZINC001596273020    0.1000
     41 H41        -4.5135    1.2634   50.1996 H       1  ZINC001596273020    0.0700
     42 H42        -2.5695    4.2984   49.9069 H       1  ZINC001596273020    0.0700
     43 H43        -2.5229    2.8920   50.9970 H       1  ZINC001596273020    0.0700
     44 H44        -2.6905    1.3486   49.1753 H       1  ZINC001596273020    0.0900
     45 H45        -3.1604    2.6315   48.0345 H       1  ZINC001596273020    0.0700
     46 H46        -0.5878    3.1813   49.1470 H       1  ZINC001596273020    0.3900
     47 H47         1.8471    4.0315   47.4369 H       1  ZINC001596273020    0.0700
     48 H48         1.3625    3.2173   48.9590 H       1  ZINC001596273020    0.0600
     49 H49         3.5158    1.9212   49.9267 H       1  ZINC001596273020    0.0500
     50 H50         1.9895    1.1603   49.4484 H       1  ZINC001596273020    0.0400
     51 H51         4.7737    0.2224   48.6562 H       1  ZINC001596273020    0.0700
     52 H52         3.7028   -0.5425   49.8597 H       1  ZINC001596273020    0.0500
     53 H53         3.4277   -1.7391   47.7440 H       1  ZINC001596273020    0.0600
     54 H54         1.9540   -0.7712   48.0187 H       1  ZINC001596273020    0.0500
     55 H55         4.3366   -0.0351   46.2737 H       1  ZINC001596273020    0.0600
     56 H56         2.7128   -0.4644   45.7146 H       1  ZINC001596273020    0.0600
     57 H57         1.0179    0.7920   45.6689 H       1  ZINC001596273020    0.0700
     58 H58         1.5004    2.4585   45.2257 H       1  ZINC001596273020    0.0700
@<TRIPOS>BOND
     1     1     2    1
     2     1    28    1
     3     1    29    1
     4     1    30    1
     5     2     3    1
     6     2    31    1
     7     2    32    1
     8     3     4    1
     9     3     5    1
    10     3     7    1
    11     5     6    1
    12     5    33    1
    13     5    34    1
    14     6    35    1
    15     6    36    1
    16     6    37    1
    17     7     8    1
    18     7    38    1
    19     7    39    1
    20     8     9    1
    21     8    40    1
    22     8    41    1
    23     9    10    1
    24    10    11    1
    25    10    42    1
    26    10    43    1
    27    11    12    1
    28    11    44    1
    29    11    45    1
    30    12    13   am
    31    12    46    1
    32    13    14    2
    33    13    15   am
    34    15    27    1
    35    15    16    1
    36    16    17    1
    37    16    47    1
    38    16    48    1
    39    17    18    1
    40    17    23    1
    41    17    19    1
    42    19    20    1
    43    19    49    1
    44    19    50    1
    45    20    21    1
    46    20    51    1
    47    20    52    1
    48    21    22    1
    49    21    53    1
    50    21    54    1
    51    22    23    1
    52    22    55    1
    53    22    56    1
    54    23    24    1
    55    23    27    1
    56    24    25   ar
    57    24    26   ar
    58    27    57    1
    59    27    58    1
@<TRIPOS>SUBSTRUCTURE
     1 ZINC001596273020        1 TEMP              0 ****  ****    0 ROOT


##########                                Name:    ZINC000572257265
##########                DOCK_Rotatable_Bonds:                  11
##########                         Heavy_Atoms:                  24
##########                    Molecular_Weight:             393.509
##########                DOCK_Rotatable_Bonds:                  11
##########                       Formal_Charge:          -0.0100002
##########                     HBond_Acceptors:                  11
##########                        HBond_Donors:                   3
##########                         Heavy_Atoms:                  24
##########                          Grid_Score:          -33.804520
##########                     Grid_vdw_energy:          -32.368969
##########                      Grid_es_energy:           -1.435552
##########           Internal_energy_repulsive:           20.540173

@<TRIPOS>MOLECULE
ZINC000572257265
 43 43 1 0 0
SMALL
USER_CHARGES


@<TRIPOS>ATOM
      1 C1          4.3604   -1.6590   50.5272 C.3     1  ZINC000572257265   -0.1300
      2 S2          4.8463    0.0714   50.2818 S.3     1  ZINC000572257265   -0.2200
      3 C3          3.2642    0.9550   50.3637 C.3     1  ZINC000572257265   -0.1300
      4 C4          2.4144    0.5937   49.1438 C.3     1  ZINC000572257265    0.1500
      5 C5          3.3078    0.5192   47.9039 C.3     1  ZINC000572257265   -0.1500
      6 O6          1.7894   -0.6735   49.3572 O.3     1  ZINC000572257265   -0.5400
      7 C7          1.3406    1.6634   48.9352 C.3     1  ZINC000572257265    0.0900
      8 N8          0.5853    1.3659   47.7157 N.am    1  ZINC000572257265   -1.1100
      9 S9         -0.5094    2.4626   47.1315 S.o2    1  ZINC000572257265    2.6900
     10 O10         0.1870    3.6943   47.0013 O.2     1  ZINC000572257265   -0.9400
     11 O11        -1.1744    1.8274   46.0481 O.2     1  ZINC000572257265   -0.9500
     12 C12        -1.7227    2.7070   48.3856 C.ar    1  ZINC000572257265   -0.6300
     13 C13        -2.9959    2.1932   48.2252 C.ar    1  ZINC000572257265   -0.0400
     14 C14        -3.9478    2.3850   49.2090 C.ar    1  ZINC000572257265   -0.0400
     15 C15        -3.6262    3.0904   50.3536 C.ar    1  ZINC000572257265   -0.6300
     16 S16        -4.8397    3.3355   51.6074 S.o2    1  ZINC000572257265    2.7000
     17 O17        -4.1593    3.9015   52.7192 O.2     1  ZINC000572257265   -0.9400
     18 O18        -5.9493    3.9590   50.9756 O.2     1  ZINC000572257265   -0.9400
     19 N19        -5.3565    1.8376   52.0888 N.am    1  ZINC000572257265   -1.1200
     20 C20        -5.9759    0.9301   51.1199 C.3     1  ZINC000572257265    0.2200
     21 C21        -6.8343   -0.0330   51.8288 C.1     1  ZINC000572257265    0.1900
     22 N22        -7.4967   -0.7762   52.3759 N.1     1  ZINC000572257265   -0.3900
     23 C23        -2.3526    3.6032   50.5147 C.ar    1  ZINC000572257265   -0.0400
     24 C24        -1.3997    3.4080   49.5324 C.ar    1  ZINC000572257265   -0.0400
     25 H25         3.6718   -1.9586   49.7371 H       1  ZINC000572257265    0.0800
     26 H26         5.2465   -2.2931   50.4966 H       1  ZINC000572257265    0.1000
     27 H27         3.8708   -1.7652   51.4953 H       1  ZINC000572257265    0.0800
     28 H28         2.7350    0.6692   51.2727 H       1  ZINC000572257265    0.0900
     29 H29         3.4482    2.0294   50.3729 H       1  ZINC000572257265    0.0900
     30 H30         4.0727   -0.2429   48.0525 H       1  ZINC000572257265    0.0800
     31 H31         2.7024    0.2617   47.0348 H       1  ZINC000572257265    0.0700
     32 H32         3.7847    1.4858   47.7411 H       1  ZINC000572257265    0.0800
     33 H33         1.2481   -0.7153   50.1575 H       1  ZINC000572257265    0.3800
     34 H34         0.6637    1.6701   49.7894 H       1  ZINC000572257265    0.0900
     35 H35         1.8147    2.6402   48.8397 H       1  ZINC000572257265    0.0800
     36 H36         0.7264    0.5265   47.2505 H       1  ZINC000572257265    0.4300
     37 H37        -3.2471    1.6421   47.3310 H       1  ZINC000572257265    0.1500
     38 H38        -4.9427    1.9842   49.0833 H       1  ZINC000572257265    0.1500
     39 H39        -5.2491    1.5612   53.0123 H       1  ZINC000572257265    0.4300
     40 H40        -6.5787    1.5053   50.4171 H       1  ZINC000572257265    0.1100
     41 H41        -5.1985    0.3928   50.5768 H       1  ZINC000572257265    0.1300
     42 H42        -2.1014    4.1539   51.4090 H       1  ZINC000572257265    0.1600
     43 H43        -0.4046    3.8086   49.6583 H       1  ZINC000572257265    0.1500
@<TRIPOS>BOND
     1     1     2    1
     2     1    25    1
     3     1    26    1
     4     1    27    1
     5     2     3    1
     6     3     4    1
     7     3    28    1
     8     3    29    1
     9     4     5    1
    10     4     6    1
    11     4     7    1
    12     5    30    1
    13     5    31    1
    14     5    32    1
    15     6    33    1
    16     7     8    1
    17     7    34    1
    18     7    35    1
    19     8     9   am
    20     8    36    1
    21     9    10    2
    22     9    11    2
    23     9    12    1
    24    12    24   ar
    25    12    13   ar
    26    13    14   ar
    27    13    37    1
    28    14    15   ar
    29    14    38    1
    30    15    16    1
    31    15    23   ar
    32    16    17    2
    33    16    18    2
    34    16    19   am
    35    19    20    1
    36    19    39    1
    37    20    21    1
    38    20    40    1
    39    20    41    1
    40    21    22    3
    41    23    24   ar
    42    23    42    1
    43    24    43    1
@<TRIPOS>SUBSTRUCTURE
     1 ZINC000572257265        1 TEMP              0 ****  ****    0 ROOT


##########                                Name:     oleObject14.pdb
##########                DOCK_Rotatable_Bonds:                   9
##########                         Heavy_Atoms:                  33
##########                    Molecular_Weight:             484.424
##########                DOCK_Rotatable_Bonds:                   9
##########                       Formal_Charge:         0.000299782
##########                     HBond_Acceptors:                   7
##########                        HBond_Donors:                   1
##########                         Heavy_Atoms:                  33
##########                          Grid_Score:          -33.790104
##########                     Grid_vdw_energy:          -34.249775
##########                      Grid_es_energy:            0.459670
##########           Internal_energy_repulsive:            9.596674

@<TRIPOS>MOLECULE
oleObject14.pdb
 60 63 1 0 0
SMALL
NO_CHARGES


@<TRIPOS>ATOM
      1 C          -2.2527    3.0168   49.3644 C.ar    1  UNL         0.0422
      2 C          -3.3125    2.1768   48.9880 C.ar    1  UNL        -0.0408
      3 C          -4.3380    1.8844   49.9027 C.ar    1  UNL        -0.0288
      4 C          -4.3075    2.4328   51.2029 C.ar    1  UNL         0.0937
      5 C          -3.2394    3.2758   51.5723 C.ar    1  UNL         0.0723
      6 C          -2.2154    3.5664   50.6554 C.ar    1  UNL        -0.0221
      7 CL         -3.1624    3.9787   53.1772 Cl      1  UNL        -0.0814
      8 O          -5.2959    2.1703   52.1319 O.3     1  UNL        -0.3432
      9 C          -6.5975    1.6633   51.7877 C.3     1  UNL         0.0661
     10 C          -7.5345    1.9197   52.9862 C.3     1  UNL         0.0222
     11 N          -8.9165    1.4380   52.7675 N.4     1  UNL        -0.3010
     12 C          -9.1368    0.0246   53.1539 C.3     1  UNL        -0.0010
     13 C         -10.5623   -0.4542   52.7991 C.3     1  UNL        -0.0289
     14 C         -11.6663    0.4586   53.3853 C.3     1  UNL         0.0382
     15 C         -11.3646    1.9408   53.0489 C.3     1  UNL        -0.0289
     16 C          -9.9089    2.3578   53.3646 C.3     1  UNL        -0.0010
     17 C         -11.8540    0.2264   54.9050 C.2     1  UNL         0.2156
     18 O         -11.4783    1.0380   55.7312 O.2     1  UNL        -0.2774
     19 N         -12.5085   -0.9134   55.3542 N.am    1  UNL        -0.3025
     20 C         -12.7803   -1.3046   56.7502 C.3     1  UNL         0.0900
     21 C         -13.5339   -2.6287   56.8615 C.ar    1  UNL        -0.0217
     22 C         -14.4990   -2.8359   57.8678 C.ar    1  UNL        -0.0568
     23 C         -15.1745   -4.0636   57.9627 C.ar    1  UNL        -0.0619
     24 C         -14.8936   -5.0929   57.0505 C.ar    1  UNL        -0.0622
     25 C         -13.9384   -4.8922   56.0417 C.ar    1  UNL        -0.0619
     26 C         -13.2631   -3.6645   55.9471 C.ar    1  UNL        -0.0568
     27 C         -11.5038   -1.3384   57.5851 C.ar    1  UNL         0.0652
     28 C         -11.0485   -0.2046   58.2895 C.ar    1  UNL        -0.0383
     29 C          -9.8614   -0.2956   59.0337 C.ar    1  UNL        -0.0588
     30 C          -9.1698   -1.5168   59.0469 C.ar    1  UNL        -0.0438
     31 C          -9.6930   -2.5966   58.3150 C.ar    1  UNL         0.0272
     32 N         -10.8328   -2.5109   57.5997 N.ar    1  UNL        -0.2590
     33 CL         -0.9765    3.3792   48.2223 Cl      1  UNL        -0.0843
     34 H          -3.3408    1.7521   47.9885 H       1  UNL         0.0639
     35 H          -5.1476    1.2330   49.5901 H       1  UNL         0.0652
     36 H          -1.3948    4.2164   50.9458 H       1  UNL         0.0655
     37 H          -6.5370    0.5888   51.5771 H       1  UNL         0.0586
     38 H          -6.9863    2.1837   50.9030 H       1  UNL         0.0586
     39 H          -7.5551    3.0026   53.1661 H       1  UNL         0.0455
     40 H          -7.1104    1.4453   53.8809 H       1  UNL         0.0455
     41 H          -8.9727   -0.0938   54.2330 H       1  UNL         0.0431
     42 H          -8.4265   -0.6312   52.6374 H       1  UNL         0.0431
     43 H         -10.6999   -1.4862   53.1422 H       1  UNL         0.0288
     44 H         -10.6612   -0.4723   51.7060 H       1  UNL         0.0288
     45 H         -12.5989    0.2162   52.8688 H       1  UNL         0.0402
     46 H         -12.0645    2.5973   53.5815 H       1  UNL         0.0288
     47 H         -11.5414    2.0995   51.9771 H       1  UNL         0.0288
     48 H          -9.7685    2.3950   54.4522 H       1  UNL         0.0431
     49 H          -9.7499    3.3742   52.9818 H       1  UNL         0.0431
     50 H         -12.9239   -1.4899   54.6336 H       1  UNL         0.1504
     51 H         -13.4114   -0.5168   57.1811 H       1  UNL         0.0624
     52 H         -14.7210   -2.0503   58.5839 H       1  UNL         0.0626
     53 H         -15.9140   -4.2170   58.7434 H       1  UNL         0.0623
     54 H         -15.4165   -6.0423   57.1236 H       1  UNL         0.0623
     55 H         -13.7225   -5.6865   55.3329 H       1  UNL         0.0623
     56 H         -12.5270   -3.5184   55.1614 H       1  UNL         0.0626
     57 H         -11.6028    0.7286   58.2609 H       1  UNL         0.0643
     58 H          -9.4863    0.5606   59.5868 H       1  UNL         0.0624
     59 H          -8.2480   -1.6257   59.6108 H       1  UNL         0.0639
     60 H          -9.1839   -3.5596   58.3007 H       1  UNL         0.0840
@<TRIPOS>BOND
     1     1     2   ar
     2     1     6   ar
     3     1    33    1
     4     2     3   ar
     5     2    34    1
     6     3     4   ar
     7     3    35    1
     8     4     5   ar
     9     4     8    1
    10     5     6   ar
    11     5     7    1
    12     6    36    1
    13     8     9    1
    14     9    10    1
    15     9    37    1
    16     9    38    1
    17    10    11    1
    18    10    39    1
    19    10    40    1
    20    11    12    1
    21    11    16    1
    22    12    13    1
    23    12    41    1
    24    12    42    1
    25    13    14    1
    26    13    43    1
    27    13    44    1
    28    14    15    1
    29    14    17    1
    30    14    45    1
    31    15    16    1
    32    15    46    1
    33    15    47    1
    34    16    48    1
    35    16    49    1
    36    17    18    2
    37    17    19   am
    38    19    20    1
    39    19    50    1
    40    20    21    1
    41    20    27    1
    42    20    51    1
    43    21    22   ar
    44    21    26   ar
    45    22    23   ar
    46    22    52    1
    47    23    24   ar
    48    23    53    1
    49    24    25   ar
    50    24    54    1
    51    25    26   ar
    52    25    55    1
    53    26    56    1
    54    27    28   ar
    55    27    32   ar
    56    28    29   ar
    57    28    57    1
    58    29    30   ar
    59    29    58    1
    60    30    31   ar
    61    30    59    1
    62    31    32   ar
    63    31    60    1
@<TRIPOS>SUBSTRUCTURE
     1 UNL         1 TEMP              0 ****  ****    0 ROOT


##########                                Name:    ZINC000809503567
##########                DOCK_Rotatable_Bonds:                   9
##########                         Heavy_Atoms:                  26
##########                    Molecular_Weight:             353.378
##########                DOCK_Rotatable_Bonds:                   9
##########                       Formal_Charge:          -0.0200002
##########                     HBond_Acceptors:                   7
##########                        HBond_Donors:                   1
##########                         Heavy_Atoms:                  26
##########                          Grid_Score:          -33.749348
##########                     Grid_vdw_energy:          -31.807959
##########                      Grid_es_energy:           -1.941388
##########           Internal_energy_repulsive:           11.381701

@<TRIPOS>MOLECULE
ZINC000809503567
 45 46 1 0 0
SMALL
USER_CHARGES


@<TRIPOS>ATOM
      1 C1         -6.0824    1.4246   50.3353 C.3     1  ZINC000809503567    0.0200
      2 O2         -4.9782    2.0494   49.6775 O.3     1  ZINC000809503567   -0.3100
      3 C3         -4.0079    2.5752   50.4673 C.ar    1  ZINC000809503567    0.1900
      4 C4         -4.3250    3.0735   51.7212 C.ar    1  ZINC000809503567   -0.2100
      5 C5         -3.3364    3.6086   52.5242 C.ar    1  ZINC000809503567   -0.0200
      6 C6         -2.0240    3.6522   52.0846 C.ar    1  ZINC000809503567   -0.1500
      7 C7         -0.9553    4.2391   52.9704 C.3     1  ZINC000809503567    0.1700
      8 N8         -0.8227    3.4246   54.1808 N.am    1  ZINC000809503567   -0.7000
      9 C9         -0.3097    3.9651   55.3039 C.2     1  ZINC000809503567    0.5100
     10 O10         0.0436    5.1259   55.3120 O.2     1  ZINC000809503567   -0.4900
     11 C11        -0.1760    3.1346   56.5392 C.2     1  ZINC000809503567    0.5100
     12 O12         0.8651    2.5562   56.7718 O.2     1  ZINC000809503567   -0.5000
     13 N13        -1.2118    3.0281   57.3949 N.am    1  ZINC000809503567   -0.4600
     14 C14        -2.4681    3.7279   57.1151 C.3     1  ZINC000809503567    0.0800
     15 O15        -1.0857    2.2399   58.5645 O.3     1  ZINC000809503567   -0.1100
     16 C16        -0.4050    2.8954   59.6365 C.3     1  ZINC000809503567    0.0800
     17 C17        -0.2165    1.9289   60.7773 C.ar    1  ZINC000809503567   -0.0900
     18 C18        -0.2456    2.3853   62.0818 C.ar    1  ZINC000809503567   -0.1000
     19 C19        -0.0727    1.4987   63.1283 C.ar    1  ZINC000809503567   -0.1300
     20 C20         0.1289    0.1557   62.8703 C.ar    1  ZINC000809503567   -0.1100
     21 C21         0.1571   -0.3009   61.5657 C.ar    1  ZINC000809503567   -0.1300
     22 C22        -0.0201    0.5851   60.5194 C.ar    1  ZINC000809503567   -0.0800
     23 C23        -1.6906    3.1607   50.8404 C.ar    1  ZINC000809503567   -0.0100
     24 C24        -2.6794    2.6117   50.0208 C.ar    1  ZINC000809503567   -0.0600
     25 C25        -2.3401    2.0994   48.7274 C.1     1  ZINC000809503567    0.2600
     26 N26        -2.0709    1.6930   47.7012 N.1     1  ZINC000809503567   -0.4100
     27 H27        -6.5854    2.1527   50.9717 H       1  ZINC000809503567    0.0600
     28 H28        -6.7832    1.0477   49.5903 H       1  ZINC000809503567    0.1100
     29 H29        -5.7208    0.5970   50.9455 H       1  ZINC000809503567    0.0600
     30 H30        -5.3463    3.0437   52.0709 H       1  ZINC000809503567    0.1400
     31 H31        -3.5886    3.9955   53.5005 H       1  ZINC000809503567    0.1400
     32 H32        -0.0059    4.2515   52.4349 H       1  ZINC000809503567    0.0900
     33 H33        -1.2304    5.2572   53.2458 H       1  ZINC000809503567    0.0900
     34 H34        -1.1040    2.4963   54.1740 H       1  ZINC000809503567    0.4100
     35 H35        -3.1217    3.0811   56.5298 H       1  ZINC000809503567    0.0800
     36 H36        -2.9578    3.9849   58.0544 H       1  ZINC000809503567    0.0800
     37 H37        -2.2596    4.6382   56.5531 H       1  ZINC000809503567    0.0900
     38 H38         0.5683    3.2430   59.2902 H       1  ZINC000809503567    0.0700
     39 H39        -0.9954    3.7466   59.9753 H       1  ZINC000809503567    0.0600
     40 H40        -0.4031    3.4344   62.2834 H       1  ZINC000809503567    0.1200
     41 H41        -0.0947    1.8553   64.1474 H       1  ZINC000809503567    0.1200
     42 H42         0.2647   -0.5368   63.6877 H       1  ZINC000809503567    0.1200
     43 H43         0.3149   -1.3501   61.3641 H       1  ZINC000809503567    0.1200
     44 H44         0.0019    0.2283   59.5002 H       1  ZINC000809503567    0.1300
     45 H45        -0.6658    3.1967   50.5016 H       1  ZINC000809503567    0.1400
@<TRIPOS>BOND
     1     1     2    1
     2     1    27    1
     3     1    28    1
     4     1    29    1
     5     2     3    1
     6     3    24   ar
     7     3     4   ar
     8     4     5   ar
     9     4    30    1
    10     5     6   ar
    11     5    31    1
    12     6     7    1
    13     6    23   ar
    14     7     8    1
    15     7    32    1
    16     7    33    1
    17     8     9   am
    18     8    34    1
    19     9    10    2
    20     9    11    1
    21    11    12    2
    22    11    13   am
    23    13    14    1
    24    13    15    1
    25    14    35    1
    26    14    36    1
    27    14    37    1
    28    15    16    1
    29    16    17    1
    30    16    38    1
    31    16    39    1
    32    17    22   ar
    33    17    18   ar
    34    18    19   ar
    35    18    40    1
    36    19    20   ar
    37    19    41    1
    38    20    21   ar
    39    20    42    1
    40    21    22   ar
    41    21    43    1
    42    22    44    1
    43    23    24   ar
    44    23    45    1
    45    24    25    1
    46    25    26    3
@<TRIPOS>SUBSTRUCTURE
     1 ZINC000809503567        1 TEMP              0 ****  ****    0 ROOT


##########                                Name:    ZINC000185180600
##########                DOCK_Rotatable_Bonds:                   7
##########                         Heavy_Atoms:                  26
##########                    Molecular_Weight:             395.953
##########                DOCK_Rotatable_Bonds:                   7
##########                       Formal_Charge:          0.00999977
##########                     HBond_Acceptors:                   7
##########                        HBond_Donors:                   0
##########                         Heavy_Atoms:                  26
##########                          Grid_Score:          -33.734222
##########                     Grid_vdw_energy:          -32.719944
##########                      Grid_es_energy:           -1.014280
##########           Internal_energy_repulsive:           17.059986

@<TRIPOS>MOLECULE
ZINC000185180600
 52 53 1 0 0
SMALL
USER_CHARGES


@<TRIPOS>ATOM
      1 C1        -14.3601   -0.0637   51.6524 C.3     1  ZINC000185180600   -0.1500
      2 C2        -12.8317   -0.0540   51.7209 C.3     1  ZINC000185180600   -0.0900
      3 C3        -12.2800    0.9079   50.6667 C.3     1  ZINC000185180600   -0.1500
      4 C4        -12.3863    0.4033   53.1114 C.3     1  ZINC000185180600   -0.1300
      5 C5        -11.0608   -0.2714   53.4698 C.3     1  ZINC000185180600    0.1300
      6 H6        -10.4556   -0.3842   52.5705 H       1  ZINC000185180600    0.1100
      7 C7        -11.3372   -1.6494   54.0748 C.3     1  ZINC000185180600   -0.1600
      8 N8        -10.3405    0.5535   54.4429 N.am    1  ZINC000185180600   -0.6000
      9 C9        -10.8925    0.7531   55.7852 C.3     1  ZINC000185180600    0.0700
     10 C10        -9.1700    1.1287   54.1034 C.2     1  ZINC000185180600    0.5400
     11 O11        -8.5729    1.8104   54.9094 O.2     1  ZINC000185180600   -0.5300
     12 C12        -8.6029    0.9251   52.7220 C.3     1  ZINC000185180600   -0.5000
     13 S13        -6.9873    1.7417   52.6051 S.o     1  ZINC000185180600    1.3200
     14 O14        -7.1520    3.1434   52.7710 O.2     1  ZINC000185180600   -0.8000
     15 C15        -6.4751    1.3907   50.9007 C.3     1  ZINC000185180600   -0.3900
     16 C16        -5.1272    2.0133   50.6429 C.2     1  ZINC000185180600    0.1000
     17 N17        -4.4953    2.0274   49.4969 N.2     1  ZINC000185180600   -0.2800
     18 N18        -3.2797    2.7005   49.6751 N.pl3   1  ZINC000185180600   -0.3200
     19 C19        -2.3111    2.9304   48.6877 C.ar    1  ZINC000185180600    0.1700
     20 C20        -1.5551    4.0945   48.7130 C.ar    1  ZINC000185180600   -0.1300
     21 C21        -0.6018    4.3188   47.7393 C.ar    1  ZINC000185180600   -0.0800
     22 C22        -0.4002    3.3844   46.7385 C.ar    1  ZINC000185180600   -0.0500
     23 Cl23        0.7990    3.6692   45.5159 Cl      1  ZINC000185180600   -0.0600
     24 C24        -1.1525    2.2232   46.7112 C.ar    1  ZINC000185180600   -0.0800
     25 C25        -2.1028    1.9917   47.6863 C.ar    1  ZINC000185180600   -0.1100
     26 C26        -3.2058    3.0890   50.9681 C.2     1  ZINC000185180600    0.0600
     27 C27        -4.3387    2.6814   51.5860 C.2     1  ZINC000185180600   -0.2500
     28 H28       -14.6774   -0.3894   50.6617 H       1  ZINC000185180600    0.0500
     29 H29       -14.7531   -0.7489   52.4033 H       1  ZINC000185180600    0.0600
     30 H30       -14.7387    0.9405   51.8432 H       1  ZINC000185180600    0.0500
     31 H31       -12.4530   -1.0581   51.5300 H       1  ZINC000185180600    0.0700
     32 H32       -12.5269    0.5372   49.6718 H       1  ZINC000185180600    0.0500
     33 H33       -12.7229    1.8940   50.8073 H       1  ZINC000185180600    0.0500
     34 H34       -11.1973    0.9780   50.7699 H       1  ZINC000185180600    0.0500
     35 H35       -12.2555    1.4854   53.1133 H       1  ZINC000185180600    0.0700
     36 H36       -13.1443    0.1276   53.8446 H       1  ZINC000185180600    0.0800
     37 H37       -11.9425   -1.5365   54.9742 H       1  ZINC000185180600    0.0600
     38 H38       -11.8732   -2.2630   53.3508 H       1  ZINC000185180600    0.0700
     39 H39       -10.3928   -2.1301   54.3302 H       1  ZINC000185180600    0.0600
     40 H40       -10.5245   -0.0291   56.4493 H       1  ZINC000185180600    0.0600
     41 H41       -10.5828    1.7269   56.1644 H       1  ZINC000185180600    0.0700
     42 H42       -11.9806    0.7096   55.7407 H       1  ZINC000185180600    0.0800
     43 H43        -8.4854   -0.1417   52.5312 H       1  ZINC000185180600    0.1500
     44 H44        -9.2809    1.3537   51.9841 H       1  ZINC000185180600    0.1200
     45 H45        -6.4109    0.3123   50.7554 H       1  ZINC000185180600    0.1400
     46 H46        -7.2064    1.8077   50.2083 H       1  ZINC000185180600    0.1000
     47 H47        -1.7127    4.8244   49.4934 H       1  ZINC000185180600    0.1400
     48 H48        -0.0135    5.2243   47.7586 H       1  ZINC000185180600    0.1500
     49 H49        -0.9936    1.4957   45.9290 H       1  ZINC000185180600    0.1400
     50 H50        -2.6897    1.0853   47.6645 H       1  ZINC000185180600    0.1500
     51 H51        -2.3910    3.6314   51.4248 H       1  ZINC000185180600    0.1800
     52 H52        -4.5868    2.8376   52.6254 H       1  ZINC000185180600    0.1700
@<TRIPOS>BOND
     1     1     2    1
     2     1    28    1
     3     1    29    1
     4     1    30    1
     5     2     3    1
     6     2     4    1
     7     2    31    1
     8     3    32    1
     9     3    33    1
    10     3    34    1
    11     4     5    1
    12     4    35    1
    13     4    36    1
    14     5     6    1
    15     5     7    1
    16     5     8    1
    17     7    37    1
    18     7    38    1
    19     7    39    1
    20     8     9    1
    21     8    10   am
    22     9    40    1
    23     9    41    1
    24     9    42    1
    25    10    11    2
    26    10    12    1
    27    12    13    1
    28    12    43    1
    29    12    44    1
    30    13    14    2
    31    13    15    1
    32    15    16    1
    33    15    45    1
    34    15    46    1
    35    16    27    1
    36    16    17    2
    37    17    18    1
    38    18    19    1
    39    18    26    1
    40    19    25   ar
    41    19    20   ar
    42    20    21   ar
    43    20    47    1
    44    21    22   ar
    45    21    48    1
    46    22    23    1
    47    22    24   ar
    48    24    25   ar
    49    24    49    1
    50    25    50    1
    51    26    27    2
    52    26    51    1
    53    27    52    1
@<TRIPOS>SUBSTRUCTURE
     1 ZINC000185180600        1 TEMP              0 ****  ****    0 ROOT


##########                                Name:    ZINC000045927156
##########                DOCK_Rotatable_Bonds:                   7
##########                         Heavy_Atoms:                  30
##########                    Molecular_Weight:             418.522
##########                DOCK_Rotatable_Bonds:                   7
##########                       Formal_Charge:           0.0200001
##########                     HBond_Acceptors:                   8
##########                        HBond_Donors:                   1
##########                         Heavy_Atoms:                  30
##########                          Grid_Score:          -33.632488
##########                     Grid_vdw_energy:          -32.369507
##########                      Grid_es_energy:           -1.262981
##########           Internal_energy_repulsive:           16.581659

@<TRIPOS>MOLECULE
ZINC000045927156
 52 56 1 0 0
SMALL
USER_CHARGES


@<TRIPOS>ATOM
      1 O1         -2.4206    1.6195   47.7349 O.2     1  ZINC000045927156   -0.5800
      2 C2         -1.7445    2.5617   48.1007 C.2     1  ZINC000045927156    0.7300
      3 N3         -2.0391    3.1954   49.2531 N.am    1  ZINC000045927156   -0.7400
      4 C4         -3.1775    2.7528   50.0621 C.3     1  ZINC000045927156    0.1700
      5 C5         -3.0093    3.2439   51.4769 C.ar    1  ZINC000045927156   -0.0700
      6 C6         -1.7491    3.3093   52.0406 C.ar    1  ZINC000045927156   -0.1000
      7 C7         -1.5949    3.7598   53.3385 C.ar    1  ZINC000045927156   -0.1100
      8 C8         -2.7009    4.1453   54.0723 C.ar    1  ZINC000045927156   -0.1100
      9 C9         -3.9615    4.0808   53.5081 C.ar    1  ZINC000045927156   -0.1000
     10 C10        -4.1153    3.6345   52.2091 C.ar    1  ZINC000045927156   -0.1000
     11 C11        -5.4893    3.5642   51.5941 C.3     1  ZINC000045927156    0.1700
     12 N12        -5.9806    2.1853   51.6529 N.pl3   1  ZINC000045927156   -0.3800
     13 C13        -6.6393    1.6074   52.6724 C.2     1  ZINC000045927156    0.2500
     14 N14        -6.9037    0.3710   52.3361 N.2     1  ZINC000045927156   -0.5400
     15 C15        -6.4317    0.1240   51.1148 C.2     1  ZINC000045927156    0.2000
     16 N16        -5.8625    1.2062   50.6528 N.2     1  ZINC000045927156   -0.3100
     17 N17        -0.6973    2.9688   47.3564 N.am    1  ZINC000045927156   -0.6200
     18 C18        -0.2642    2.3684   46.0815 C.3     1  ZINC000045927156    0.1000
     19 C19         0.5041    3.4983   45.3517 C.3     1  ZINC000045927156   -0.1300
     20 C20         1.2278    4.1964   46.5334 C.3     1  ZINC000045927156   -0.1200
     21 C21         0.1986    4.0892   47.6781 C.3     1  ZINC000045927156    0.2300
     22 H22        -0.3706    5.0158   47.7527 H       1  ZINC000045927156    0.1000
     23 C23         0.9068    3.8168   48.9802 C.2     1  ZINC000045927156    0.0900
     24 N24         0.9837    4.6521   49.9460 N.2     1  ZINC000045927156   -0.4500
     25 C25         1.6492    4.2733   51.0538 C.ar    1  ZINC000045927156    0.0800
     26 C26         1.8846    4.9820   52.2489 C.ar    1  ZINC000045927156   -0.0700
     27 C27         2.5916    4.4093   53.2626 C.ar    1  ZINC000045927156   -0.1100
     28 C28         3.0922    3.1210   53.1398 C.ar    1  ZINC000045927156   -0.1000
     29 C29         2.8776    2.4048   51.9836 C.ar    1  ZINC000045927156   -0.0700
     30 C30         2.1568    2.9743   50.9364 C.ar    1  ZINC000045927156   -0.1800
     31 S31         1.7000    2.3527   49.3535 S.3     1  ZINC000045927156    0.1200
     32 H32        -1.4972    3.9444   49.5469 H       1  ZINC000045927156    0.3900
     33 H33        -4.0993    3.1574   49.6442 H       1  ZINC000045927156    0.1000
     34 H34        -3.2242    1.6639   50.0587 H       1  ZINC000045927156    0.0700
     35 H35        -0.8848    3.0081   51.4673 H       1  ZINC000045927156    0.1300
     36 H36        -0.6102    3.8102   53.7792 H       1  ZINC000045927156    0.1300
     37 H37        -2.5805    4.4965   55.0864 H       1  ZINC000045927156    0.1300
     38 H38        -4.8258    4.3816   54.0815 H       1  ZINC000045927156    0.1300
     39 H39        -6.1677    4.2154   52.1452 H       1  ZINC000045927156    0.1100
     40 H40        -5.4390    3.8880   50.5546 H       1  ZINC000045927156    0.1000
     41 H41        -6.9035    2.0809   53.6063 H       1  ZINC000045927156    0.2200
     42 H42        -6.5106   -0.8166   50.5899 H       1  ZINC000045927156    0.2200
     43 H43         0.3944    1.5198   46.2662 H       1  ZINC000045927156    0.0700
     44 H44        -1.1291    2.0579   45.4952 H       1  ZINC000045927156    0.0800
     45 H45         1.2219    3.0874   44.6418 H       1  ZINC000045927156    0.0900
     46 H46        -0.1849    4.1826   44.8565 H       1  ZINC000045927156    0.0800
     47 H47         2.1482    3.6703   46.7868 H       1  ZINC000045927156    0.0900
     48 H48         1.4318    5.2408   46.2977 H       1  ZINC000045927156    0.0900
     49 H49         1.5023    5.9858   52.3617 H       1  ZINC000045927156    0.1300
     50 H50         2.7650    4.9646   54.1726 H       1  ZINC000045927156    0.1400
     51 H51         3.6510    2.6798   53.9518 H       1  ZINC000045927156    0.1400
     52 H52         3.2681    1.4024   51.8885 H       1  ZINC000045927156    0.1300
@<TRIPOS>BOND
     1     1     2    2
     2     2     3   am
     3     2    17   am
     4     3     4    1
     5     3    32    1
     6     4     5    1
     7     4    33    1
     8     4    34    1
     9     5    10   ar
    10     5     6   ar
    11     6     7   ar
    12     6    35    1
    13     7     8   ar
    14     7    36    1
    15     8     9   ar
    16     8    37    1
    17     9    10   ar
    18     9    38    1
    19    10    11    1
    20    11    12    1
    21    11    39    1
    22    11    40    1
    23    12    16    1
    24    12    13    1
    25    13    14    2
    26    13    41    1
    27    14    15    1
    28    15    16    2
    29    15    42    1
    30    17    21    1
    31    17    18    1
    32    18    19    1
    33    18    43    1
    34    18    44    1
    35    19    20    1
    36    19    45    1
    37    19    46    1
    38    20    21    1
    39    20    47    1
    40    20    48    1
    41    21    22    1
    42    21    23    1
    43    23    31    1
    44    23    24    2
    45    24    25    1
    46    25    30   ar
    47    25    26   ar
    48    26    27   ar
    49    26    49    1
    50    27    28   ar
    51    27    50    1
    52    28    29   ar
    53    28    51    1
    54    29    30   ar
    55    29    52    1
    56    30    31    1
@<TRIPOS>SUBSTRUCTURE
     1 ZINC000045927156        1 TEMP              0 ****  ****    0 ROOT


##########                                Name:    ZINC000286156371
##########                DOCK_Rotatable_Bonds:                   7
##########                         Heavy_Atoms:                  25
##########                    Molecular_Weight:             350.418
##########                DOCK_Rotatable_Bonds:                   7
##########                       Formal_Charge:          0.00999908
##########                     HBond_Acceptors:                   8
##########                        HBond_Donors:                   2
##########                         Heavy_Atoms:                  25
##########                          Grid_Score:          -33.616634
##########                     Grid_vdw_energy:          -31.432457
##########                      Grid_es_energy:           -2.184179
##########           Internal_energy_repulsive:           13.171654

@<TRIPOS>MOLECULE
ZINC000286156371
 51 53 1 0 0
SMALL
USER_CHARGES


@<TRIPOS>ATOM
      1 C1          2.9972    0.8553   49.6596 C.3     1  <0>        -0.1800
      2 C2          3.5105   -0.3633   48.8898 C.3     1  <0>         0.1400
      3 C3          5.0106   -0.5299   49.1402 C.3     1  <0>        -0.1800
      4 C4          2.7717   -1.6156   49.3663 C.3     1  <0>        -0.1400
      5 O5          3.2749   -0.1732   47.4698 O.3     1  <0>        -0.3600
      6 C6          2.0947    0.3677   47.1130 C.2     1  <0>         0.6800
      7 O7          1.0651   -0.2549   47.2826 O.2     1  <0>        -0.5600
      8 N8          2.0553    1.5995   46.5676 N.am    1  <0>        -0.5800
      9 C9          3.2226    2.4613   46.3067 C.3     1  <0>         0.0700
     10 C10         2.7681    3.4115   45.1707 C.3     1  <0>         0.0900
     11 H11         3.3391    4.3398   45.1860 H       1  <0>         0.0900
     12 O12         2.8693    2.7719   43.8969 O.3     1  <0>        -0.5500
     13 C13         1.2852    3.6643   45.5508 C.3     1  <0>        -0.1200
     14 C14         0.8417    2.3037   46.1284 C.3     1  <0>         0.1500
     15 H15         0.3285    1.7247   45.3607 H       1  <0>         0.1100
     16 C16        -0.0746    2.5206   47.3050 C.2     1  <0>         0.5200
     17 O17         0.3904    2.7023   48.4104 O.2     1  <0>        -0.4900
     18 N18        -1.4108    2.5126   47.1289 N.am    1  <0>        -0.6300
     19 C19        -2.2630    2.7160   48.2229 C.2     1  <0>         0.3000
     20 N20        -3.1604    1.8667   48.6699 N.2     1  <0>        -0.3200
     21 N21        -3.7955    2.4459   49.7708 N.pl3   1  <0>        -0.3600
     22 C22        -4.8628    1.8655   50.5915 C.3     1  <0>         0.1400
     23 C23        -4.9462    2.6386   51.9118 C.3     1  <0>        -0.1400
     24 C24        -5.0213    4.1407   51.6224 C.3     1  <0>        -0.1300
     25 C25        -3.6714    4.6159   51.0694 C.3     1  <0>        -0.0600
     26 C26        -3.2531    3.6695   49.9711 C.2     1  <0>         0.0900
     27 C27        -2.3022    3.8617   49.0366 C.2     1  <0>        -0.2600
     28 H28         3.5234    1.7475   49.3202 H       1  <0>         0.0900
     29 H29         1.9285    0.9739   49.4813 H       1  <0>         0.0600
     30 H30         3.1740    0.7126   50.7256 H       1  <0>         0.0700
     31 H31         5.1874   -0.6726   50.2062 H       1  <0>         0.0700
     32 H32         5.3763   -1.3981   48.5919 H       1  <0>         0.0600
     33 H33         5.5369    0.3623   48.8008 H       1  <0>         0.0900
     34 H34         1.7030   -1.4969   49.1879 H       1  <0>         0.0700
     35 H35         3.1374   -2.4837   48.8179 H       1  <0>         0.0700
     36 H36         2.9486   -1.7583   50.4323 H       1  <0>         0.0800
     37 H37         3.4794    3.0325   47.1989 H       1  <0>         0.0800
     38 H38         4.0724    1.8610   45.9818 H       1  <0>         0.0900
     39 H39         2.0889    2.2553   43.6531 H       1  <0>         0.3900
     40 H40         1.2082    4.4500   46.3023 H       1  <0>         0.1000
     41 H41         0.6981    3.9154   44.6673 H       1  <0>         0.1100
     42 H42        -1.7827    2.3661   46.2451 H       1  <0>         0.4200
     43 H43        -5.8128    1.9420   50.0626 H       1  <0>         0.0800
     44 H44        -4.6389    0.8184   50.7948 H       1  <0>         0.0900
     45 H45        -5.8373    2.3292   52.4581 H       1  <0>         0.0900
     46 H46        -4.0611    2.4284   52.5123 H       1  <0>         0.0800
     47 H47        -5.8035    4.3313   50.8876 H       1  <0>         0.0700
     48 H48        -5.2470    4.6782   52.5435 H       1  <0>         0.0800
     49 H49        -3.7729    5.6240   50.6673 H       1  <0>         0.0900
     50 H50        -2.9255    4.6097   51.8642 H       1  <0>         0.0900
     51 H51        -1.6825    4.7398   48.9302 H       1  <0>         0.1700
@<TRIPOS>BOND
     1     1     2    1
     2     1    28    1
     3     1    29    1
     4     1    30    1
     5     2     3    1
     6     2     4    1
     7     2     5    1
     8     3    31    1
     9     3    32    1
    10     3    33    1
    11     4    34    1
    12     4    35    1
    13     4    36    1
    14     5     6    1
    15     6     7    2
    16     6     8   am
    17     8    14    1
    18     8     9    1
    19     9    10    1
    20     9    37    1
    21     9    38    1
    22    10    11    1
    23    10    12    1
    24    10    13    1
    25    12    39    1
    26    13    14    1
    27    13    40    1
    28    13    41    1
    29    14    15    1
    30    14    16    1
    31    16    17    2
    32    16    18   am
    33    18    19    1
    34    18    42    1
    35    19    27    1
    36    19    20    2
    37    20    21    1
    38    21    26    1
    39    21    22    1
    40    22    23    1
    41    22    43    1
    42    22    44    1
    43    23    24    1
    44    23    45    1
    45    23    46    1
    46    24    25    1
    47    24    47    1
    48    24    48    1
    49    25    26    1
    50    25    49    1
    51    25    50    1
    52    26    27    2
    53    27    51    1
@<TRIPOS>SUBSTRUCTURE
     1 <0>         1 TEMP              0 ****  ****    0 ROOT


##########                                Name:    ZINC000512239524
##########                DOCK_Rotatable_Bonds:                   9
##########                         Heavy_Atoms:                  31
##########                    Molecular_Weight:             424.518
##########                DOCK_Rotatable_Bonds:                   9
##########                       Formal_Charge:          0.00999919
##########                     HBond_Acceptors:                   7
##########                        HBond_Donors:                   1
##########                         Heavy_Atoms:                  31
##########                          Grid_Score:          -33.590366
##########                     Grid_vdw_energy:          -30.253998
##########                      Grid_es_energy:           -3.336370
##########           Internal_energy_repulsive:           26.698418

@<TRIPOS>MOLECULE
ZINC000512239524
 60 63 1 0 0
SMALL
USER_CHARGES


@<TRIPOS>ATOM
      1 C1         -4.3783    5.7750   52.6680 C.3     1  ZINC000512239524   -0.1600
      2 C2         -3.0846    4.9744   52.5061 C.3     1  ZINC000512239524    0.2000
      3 H3         -2.2776    5.6442   52.2093 H       1  ZINC000512239524    0.1100
      4 N4         -2.7443    4.3338   53.7789 N.am    1  ZINC000512239524   -0.7400
      5 C5         -2.0438    5.0126   54.7090 C.2     1  ZINC000512239524    0.7100
      6 O6         -1.6944    6.1568   54.4917 O.2     1  ZINC000512239524   -0.5800
      7 N7         -1.7308    4.4232   55.8799 N.am    1  ZINC000512239524   -0.6300
      8 C8         -2.1409    3.0394   56.1547 C.3     1  ZINC000512239524    0.1300
      9 C9         -0.9045    2.2296   56.5581 C.3     1  ZINC000512239524   -0.1100
     10 C10        -0.2060    2.9227   57.7302 C.3     1  ZINC000512239524   -0.1000
     11 C11         0.9916    2.1108   58.1519 C.2     1  ZINC000512239524    0.5300
     12 O12         1.8094    1.7629   57.3266 O.2     1  ZINC000512239524   -0.5300
     13 N13         1.1539    1.7715   59.4461 N.am    1  ZINC000512239524   -0.5800
     14 C14         2.3190    0.9837   59.8563 C.3     1  ZINC000512239524    0.1500
     15 C15         1.8756   -0.1322   60.7670 C.ar    1  ZINC000512239524   -0.1100
     16 C16         0.6627   -0.7595   60.5513 C.ar    1  ZINC000512239524   -0.0900
     17 C17         0.2560   -1.7831   61.3867 C.ar    1  ZINC000512239524   -0.1200
     18 C18         1.0622   -2.1796   62.4372 C.ar    1  ZINC000512239524   -0.1100
     19 C19         2.2754   -1.5528   62.6523 C.ar    1  ZINC000512239524   -0.1200
     20 C20         2.6842   -0.5322   61.8144 C.ar    1  ZINC000512239524   -0.1100
     21 C21         0.1651    2.1903   60.4427 C.3     1  ZINC000512239524    0.0700
     22 C22         0.6821    2.5902   61.8260 C.3     1  ZINC000512239524   -0.1900
     23 C23         0.1655    3.6612   60.8634 C.3     1  ZINC000512239524   -0.2000
     24 C24         0.2502    4.3190   57.3010 C.3     1  ZINC000512239524   -0.1400
     25 C25        -0.9677    5.1504   56.9036 C.3     1  ZINC000512239524    0.1100
     26 C26        -3.2762    3.9189   51.4478 C.ar    1  ZINC000512239524   -0.0800
     27 C27        -4.1710    2.8777   51.6379 C.ar    1  ZINC000512239524   -0.1400
     28 C28        -4.3207    1.9278   50.6448 C.ar    1  ZINC000512239524    0.1000
     29 N29        -3.6248    2.0031   49.5275 N.ar    1  ZINC000512239524   -0.4600
     30 C30        -2.7642    2.9784   49.3104 C.ar    1  ZINC000512239524    0.0800
     31 C31        -2.5646    3.9691   50.2562 C.ar    1  ZINC000512239524    0.0600
     32 F32        -1.6815    4.9656   50.0278 F       1  ZINC000512239524   -0.1200
     33 H33        -4.2398    6.5385   53.4335 H       1  ZINC000512239524    0.0700
     34 H34        -4.6315    6.2517   51.7210 H       1  ZINC000512239524    0.0700
     35 H35        -5.1853    5.1052   52.9649 H       1  ZINC000512239524    0.0600
     36 H36        -3.0230    3.4210   53.9523 H       1  ZINC000512239524    0.3900
     37 H37        -2.8666    3.0279   56.9679 H       1  ZINC000512239524    0.0700
     38 H38        -2.5857    2.6055   55.2591 H       1  ZINC000512239524    0.1000
     39 H39        -1.2085    1.2265   56.8572 H       1  ZINC000512239524    0.0900
     40 H40        -0.2197    2.1658   55.7125 H       1  ZINC000512239524    0.0800
     41 H41        -0.8994    3.0085   58.5669 H       1  ZINC000512239524    0.1000
     42 H42         2.8016    0.5627   58.9743 H       1  ZINC000512239524    0.0900
     43 H43         3.0238    1.6256   60.3847 H       1  ZINC000512239524    0.1000
     44 H44         0.0328   -0.4498   59.7306 H       1  ZINC000512239524    0.1300
     45 H45        -0.6918   -2.2727   61.2187 H       1  ZINC000512239524    0.1200
     46 H46         0.7441   -2.9789   63.0903 H       1  ZINC000512239524    0.1200
     47 H47         2.9052   -1.8624   63.4732 H       1  ZINC000512239524    0.1200
     48 H48         3.6320   -0.0425   61.9823 H       1  ZINC000512239524    0.1200
     49 H49        -0.7976    1.6815   60.3925 H       1  ZINC000512239524    0.1300
     50 H50         0.0596    2.3443   62.6863 H       1  ZINC000512239524    0.1100
     51 H51         1.7578    2.5416   61.9946 H       1  ZINC000512239524    0.1000
     52 H52         0.9015    4.3174   60.3987 H       1  ZINC000512239524    0.1100
     53 H53        -0.7968    4.1201   61.0903 H       1  ZINC000512239524    0.1000
     54 H54         0.7682    4.8030   58.1289 H       1  ZINC000512239524    0.0900
     55 H55         0.9242    4.2355   56.4484 H       1  ZINC000512239524    0.0700
     56 H56        -0.6404    6.1102   56.5040 H       1  ZINC000512239524    0.0800
     57 H57        -1.6004    5.3121   57.7763 H       1  ZINC000512239524    0.0800
     58 H58        -4.7440    2.8092   52.5508 H       1  ZINC000512239524    0.1400
     59 H59        -5.0162    1.1137   50.7860 H       1  ZINC000512239524    0.1700
     60 H60        -2.2118    3.0065   48.3828 H       1  ZINC000512239524    0.1700
@<TRIPOS>BOND
     1     1     2    1
     2     1    33    1
     3     1    34    1
     4     1    35    1
     5     2     3    1
     6     2     4    1
     7     2    26    1
     8     4     5   am
     9     4    36    1
    10     5     6    2
    11     5     7   am
    12     7    25    1
    13     7     8    1
    14     8     9    1
    15     8    37    1
    16     8    38    1
    17     9    10    1
    18     9    39    1
    19     9    40    1
    20    10    11    1
    21    10    24    1
    22    10    41    1
    23    11    12    2
    24    11    13   am
    25    13    14    1
    26    13    21    1
    27    14    15    1
    28    14    42    1
    29    14    43    1
    30    15    20   ar
    31    15    16   ar
    32    16    17   ar
    33    16    44    1
    34    17    18   ar
    35    17    45    1
    36    18    19   ar
    37    18    46    1
    38    19    20   ar
    39    19    47    1
    40    20    48    1
    41    21    23    1
    42    21    22    1
    43    21    49    1
    44    22    23    1
    45    22    50    1
    46    22    51    1
    47    23    52    1
    48    23    53    1
    49    24    25    1
    50    24    54    1
    51    24    55    1
    52    25    56    1
    53    25    57    1
    54    26    31   ar
    55    26    27   ar
    56    27    28   ar
    57    27    58    1
    58    28    29   ar
    59    28    59    1
    60    29    30   ar
    61    30    31   ar
    62    30    60    1
    63    31    32    1
@<TRIPOS>SUBSTRUCTURE
     1 ZINC000512239524        1 TEMP              0 ****  ****    0 ROOT


##########                                Name:    ZINC000006915700
##########                DOCK_Rotatable_Bonds:                   5
##########                         Heavy_Atoms:                  26
##########                    Molecular_Weight:             369.447
##########                DOCK_Rotatable_Bonds:                   5
##########                       Formal_Charge:        -1.04308e-07
##########                     HBond_Acceptors:                   8
##########                        HBond_Donors:                   1
##########                         Heavy_Atoms:                  26
##########                          Grid_Score:          -33.523663
##########                     Grid_vdw_energy:          -31.331015
##########                      Grid_es_energy:           -2.192649
##########           Internal_energy_repulsive:            6.407657

@<TRIPOS>MOLECULE
ZINC000006915700
 45 48 1 0 0
SMALL
USER_CHARGES


@<TRIPOS>ATOM
      1 C1          1.1865    2.9002   45.9971 C.3     1  <0>        -0.1200
      2 C2          0.0933    2.8657   47.0339 C.ar    1  <0>        -0.0500
      3 C3         -1.1022    2.2283   46.7533 C.ar    1  <0>        -0.1300
      4 C4         -2.1067    2.1929   47.6985 C.ar    1  <0>        -0.0600
      5 C5         -1.9150    2.8016   48.9390 C.ar    1  <0>        -0.0700
      6 C6         -2.9890    2.7669   49.9581 C.2     1  <0>         0.4400
      7 N7         -4.1553    2.2111   49.6572 N.2     1  <0>        -0.5200
      8 C8         -5.1337    2.1720   50.5668 C.2     1  <0>         0.3600
      9 C9         -6.4286    1.6699   50.5479 C.2     1  <0>        -0.3200
     10 C10        -6.9969    1.9125   51.7994 C.2     1  <0>         0.5500
     11 O11        -8.1273    1.6053   52.1412 O.2     1  <0>        -0.5200
     12 N12        -6.0860    2.5427   52.5666 N.am    1  <0>        -0.5000
     13 N13        -4.9180    2.7139   51.8171 N.pl3   1  <0>        -0.3300
     14 C14        -3.7068    3.2784   52.0957 C.2     1  <0>         0.3900
     15 S15        -3.3976    3.9796   53.6824 S.3     1  <0>         0.1200
     16 C16        -1.6008    4.1786   53.5932 C.3     1  <0>        -0.1500
     17 C17        -1.1019    4.8129   54.8661 C.2     1  <0>         0.5500
     18 O18        -0.8903    6.0064   54.9065 O.2     1  <0>        -0.5200
     19 N19        -0.8909    4.0536   55.9594 N.am    1  <0>        -0.6100
     20 C20        -0.4124    4.5406   57.2615 C.3     1  <0>         0.0900
     21 C21        -0.2983    3.3167   58.1947 C.3     1  <0>        -0.1300
     22 C22        -0.1776    2.1317   57.2005 C.3     1  <0>        -0.1400
     23 C23        -1.1074    2.5981   56.0496 C.3     1  <0>         0.1000
     24 N24        -2.7646    3.2905   51.1657 N.2     1  <0>        -0.5600
     25 C25        -0.7073    3.4426   49.2157 C.ar    1  <0>        -0.0500
     26 C26         0.2915    3.4666   48.2642 C.ar    1  <0>        -0.1300
     27 H27         1.8283    2.0273   46.1167 H       1  <0>         0.0800
     28 H28         0.7434    2.8916   45.0013 H       1  <0>         0.0700
     29 H29         1.7787    3.8066   46.1235 H       1  <0>         0.0700
     30 H30        -1.2495    1.7578   45.7925 H       1  <0>         0.1300
     31 H31        -3.0396    1.6954   47.4783 H       1  <0>         0.1300
     32 H32        -6.9096    1.1801   49.7142 H       1  <0>         0.1800
     33 H33        -6.2180    2.8290   53.4840 H       1  <0>         0.4400
     34 H34        -1.1330    3.2024   53.4662 H       1  <0>         0.1400
     35 H35        -1.3474    4.8161   52.7462 H       1  <0>         0.1400
     36 H36         0.5641    5.0106   57.1455 H       1  <0>         0.0800
     37 H37        -1.1238    5.2561   57.6739 H       1  <0>         0.0800
     38 H38         0.5927    3.3891   58.8184 H       1  <0>         0.0900
     39 H39        -1.1931    3.2153   58.8088 H       1  <0>         0.0800
     40 H40         0.8494    2.0150   56.8545 H       1  <0>         0.0800
     41 H41        -0.5450    1.2078   57.6472 H       1  <0>         0.0900
     42 H42        -2.1477    2.3783   56.2897 H       1  <0>         0.0800
     43 H43        -0.8234    2.1170   55.1138 H       1  <0>         0.0800
     44 H44        -0.5530    3.9157   50.1743 H       1  <0>         0.1400
     45 H45         1.2270    3.9623   48.4773 H       1  <0>         0.1300
@<TRIPOS>BOND
     1     1     2    1
     2     1    27    1
     3     1    28    1
     4     1    29    1
     5     2    26   ar
     6     2     3   ar
     7     3     4   ar
     8     3    30    1
     9     4     5   ar
    10     4    31    1
    11     5     6    1
    12     5    25   ar
    13     6    24    1
    14     6     7    2
    15     7     8    1
    16     8    13    1
    17     8     9    2
    18     9    10    1
    19     9    32    1
    20    10    11    2
    21    10    12   am
    22    12    13    1
    23    12    33    1
    24    13    14    1
    25    14    15    1
    26    14    24    2
    27    15    16    1
    28    16    17    1
    29    16    34    1
    30    16    35    1
    31    17    18    2
    32    17    19   am
    33    19    23    1
    34    19    20    1
    35    20    21    1
    36    20    36    1
    37    20    37    1
    38    21    22    1
    39    21    38    1
    40    21    39    1
    41    22    23    1
    42    22    40    1
    43    22    41    1
    44    23    42    1
    45    23    43    1
    46    25    26   ar
    47    25    44    1
    48    26    45    1
@<TRIPOS>SUBSTRUCTURE
     1 <0>         1 TEMP              0 ****  ****    0 ROOT


##########                                Name:    ZINC000471198073
##########                DOCK_Rotatable_Bonds:                  12
##########                         Heavy_Atoms:                  30
##########                    Molecular_Weight:             409.528
##########                DOCK_Rotatable_Bonds:                  12
##########                       Formal_Charge:          -0.0399998
##########                     HBond_Acceptors:                   6
##########                        HBond_Donors:                   3
##########                         Heavy_Atoms:                  30
##########                          Grid_Score:          -33.500278
##########                     Grid_vdw_energy:          -32.297539
##########                      Grid_es_energy:           -1.202741
##########           Internal_energy_repulsive:           27.355150

@<TRIPOS>MOLECULE
ZINC000471198073
 61 62 1 0 0
SMALL
USER_CHARGES


@<TRIPOS>ATOM
      1 C1          4.0649   -0.2180   49.8842 C.3     1  ZINC000471198073   -0.1400
      2 C2          3.0071   -0.9073   49.0201 C.3     1  ZINC000471198073   -0.1100
      3 C3          2.3036   -1.9896   49.8415 C.3     1  ZINC000471198073   -0.1500
      4 C4          1.9954    0.1095   48.5579 C.2     1  ZINC000471198073    0.5200
      5 O5          1.3100   -0.1167   47.5832 O.2     1  ZINC000471198073   -0.5200
      6 N6          1.8522    1.2702   49.2277 N.am    1  ZINC000471198073   -0.6700
      7 C7          0.9128    2.2143   48.7986 C.ar    1  ZINC000471198073    0.1600
      8 C8          1.1142    2.9051   47.6104 C.ar    1  ZINC000471198073   -0.1500
      9 C9          0.1869    3.8374   47.1854 C.ar    1  ZINC000471198073   -0.0800
     10 C10        -0.9429    4.0858   47.9400 C.ar    1  ZINC000471198073   -0.1300
     11 C11        -1.1503    3.3984   49.1303 C.ar    1  ZINC000471198073    0.1500
     12 N12        -2.2933    3.6503   49.8936 N.am    1  ZINC000471198073   -0.6400
     13 C13        -3.4187    2.9416   49.6757 C.2     1  ZINC000471198073    0.5100
     14 O14        -3.4395    2.0844   48.8167 O.2     1  ZINC000471198073   -0.5000
     15 C15        -4.6404    3.2108   50.4916 C.2     1  ZINC000471198073    0.5100
     16 O16        -5.4650    2.3357   50.6566 O.2     1  ZINC000471198073   -0.5100
     17 N17        -4.8272    4.4257   51.0446 N.am    1  ZINC000471198073   -0.7000
     18 C18        -6.0263    4.6904   51.8434 C.3     1  ZINC000471198073    0.1200
     19 C19        -5.7880    4.2395   53.2859 C.3     1  ZINC000471198073   -0.0900
     20 H20        -5.2269    3.3050   53.2864 H       1  ZINC000471198073    0.0800
     21 C21        -4.9920    5.3128   54.0309 C.3     1  ZINC000471198073   -0.0800
     22 C22        -3.8235    4.6731   54.7356 C.ar    1  ZINC000471198073   -0.0800
     23 C23        -2.8734    3.9801   54.0090 C.ar    1  ZINC000471198073   -0.1200
     24 C24        -1.8016    3.3932   54.6553 C.ar    1  ZINC000471198073   -0.1200
     25 C25        -1.6797    3.4998   56.0282 C.ar    1  ZINC000471198073   -0.1200
     26 C26        -2.6294    4.1936   56.7547 C.ar    1  ZINC000471198073   -0.1200
     27 C27        -3.6988    4.7841   56.1078 C.ar    1  ZINC000471198073   -0.1200
     28 C28        -7.1335    4.0268   53.9825 C.3     1  ZINC000471198073   -0.1000
     29 C29        -6.8958    3.6448   55.4449 C.3     1  ZINC000471198073   -0.1600
     30 C30        -7.9506    5.3188   53.9193 C.3     1  ZINC000471198073   -0.1700
     31 C31        -0.2236    2.4573   49.5567 C.ar    1  ZINC000471198073   -0.1400
     32 H32         4.7966   -0.9534   50.2184 H       1  ZINC000471198073    0.0700
     33 H33         4.5661    0.5530   49.2989 H       1  ZINC000471198073    0.0600
     34 H34         3.5857    0.2376   50.7506 H       1  ZINC000471198073    0.0600
     35 H35         3.4863   -1.3629   48.1535 H       1  ZINC000471198073    0.1000
     36 H36         1.8245   -1.5340   50.7081 H       1  ZINC000471198073    0.0600
     37 H37         1.5500   -2.4807   49.2260 H       1  ZINC000471198073    0.0600
     38 H38         3.0354   -2.7251   50.1759 H       1  ZINC000471198073    0.0700
     39 H39         2.4003    1.4511   50.0072 H       1  ZINC000471198073    0.4100
     40 H40         1.9968    2.7135   47.0181 H       1  ZINC000471198073    0.1300
     41 H41         0.3461    4.3733   46.2614 H       1  ZINC000471198073    0.1300
     42 H42        -1.6658    4.8151   47.6053 H       1  ZINC000471198073    0.1400
     43 H43        -2.2767    4.3354   50.5802 H       1  ZINC000471198073    0.4200
     44 H44        -4.1676    5.1247   50.9136 H       1  ZINC000471198073    0.4200
     45 H45        -6.2448    5.7582   51.8280 H       1  ZINC000471198073    0.0700
     46 H46        -6.8699    4.1409   51.4257 H       1  ZINC000471198073    0.0800
     47 H47        -4.6262    6.0532   53.3195 H       1  ZINC000471198073    0.0800
     48 H48        -5.6358    5.7997   54.7634 H       1  ZINC000471198073    0.0800
     49 H49        -2.9687    3.8967   52.9365 H       1  ZINC000471198073    0.1200
     50 H50        -1.0598    2.8511   54.0878 H       1  ZINC000471198073    0.1200
     51 H51        -0.8428    3.0407   56.5333 H       1  ZINC000471198073    0.1200
     52 H52        -2.5343    4.2767   57.8272 H       1  ZINC000471198073    0.1200
     53 H53        -4.4408    5.3262   56.6753 H       1  ZINC000471198073    0.1200
     54 H54        -7.6793    3.2268   53.4822 H       1  ZINC000471198073    0.0800
     55 H55        -6.4381    4.4833   55.9697 H       1  ZINC000471198073    0.0600
     56 H56        -7.8476    3.3977   55.9151 H       1  ZINC000471198073    0.0600
     57 H57        -6.2324    2.7812   55.4917 H       1  ZINC000471198073    0.0600
     58 H58        -8.0118    5.6597   52.8858 H       1  ZINC000471198073    0.0600
     59 H59        -8.9546    5.1328   54.3006 H       1  ZINC000471198073    0.0600
     60 H60        -7.4673    6.0843   54.5263 H       1  ZINC000471198073    0.0700
     61 H61        -0.3823    1.9219   50.4811 H       1  ZINC000471198073    0.1400
@<TRIPOS>BOND
     1     1     2    1
     2     1    32    1
     3     1    33    1
     4     1    34    1
     5     2     3    1
     6     2     4    1
     7     2    35    1
     8     3    36    1
     9     3    37    1
    10     3    38    1
    11     4     5    2
    12     4     6   am
    13     6     7    1
    14     6    39    1
    15     7    31   ar
    16     7     8   ar
    17     8     9   ar
    18     8    40    1
    19     9    10   ar
    20     9    41    1
    21    10    11   ar
    22    10    42    1
    23    11    12    1
    24    11    31   ar
    25    12    13   am
    26    12    43    1
    27    13    14    2
    28    13    15    1
    29    15    16    2
    30    15    17   am
    31    17    18    1
    32    17    44    1
    33    18    19    1
    34    18    45    1
    35    18    46    1
    36    19    20    1
    37    19    21    1
    38    19    28    1
    39    21    22    1
    40    21    47    1
    41    21    48    1
    42    22    27   ar
    43    22    23   ar
    44    23    24   ar
    45    23    49    1
    46    24    25   ar
    47    24    50    1
    48    25    26   ar
    49    25    51    1
    50    26    27   ar
    51    26    52    1
    52    27    53    1
    53    28    29    1
    54    28    30    1
    55    28    54    1
    56    29    55    1
    57    29    56    1
    58    29    57    1
    59    30    58    1
    60    30    59    1
    61    30    60    1
    62    31    61    1
@<TRIPOS>SUBSTRUCTURE
     1 ZINC000471198073        1 TEMP              0 ****  ****    0 ROOT


##########                                Name:    ZINC000762020937
##########                DOCK_Rotatable_Bonds:                  10
##########                         Heavy_Atoms:                  28
##########                    Molecular_Weight:             391.467
##########                DOCK_Rotatable_Bonds:                  10
##########                       Formal_Charge:         -1.8999e-07
##########                     HBond_Acceptors:                   8
##########                        HBond_Donors:                   1
##########                         Heavy_Atoms:                  28
##########                          Grid_Score:          -33.469028
##########                     Grid_vdw_energy:          -32.936939
##########                      Grid_es_energy:           -0.532089
##########           Internal_energy_repulsive:           42.235069

@<TRIPOS>MOLECULE
ZINC000762020937
 57 58 1 0 0
SMALL
USER_CHARGES


@<TRIPOS>ATOM
      1 C1         -1.8477    1.8682   46.9013 C.3     1  ZINC000762020937    0.0200
      2 O2         -2.5724    1.6624   48.1156 O.3     1  ZINC000762020937   -0.3000
      3 C3         -2.3314    2.5315   49.1334 C.ar    1  ZINC000762020937    0.1100
      4 C4         -1.0483    3.0055   49.3523 C.ar    1  ZINC000762020937   -0.1700
      5 C5         -0.8050    3.8895   50.3875 C.ar    1  ZINC000762020937   -0.1000
      6 C6         -1.8397    4.3020   51.2056 C.ar    1  ZINC000762020937   -0.1000
      7 C7         -1.5689    5.2653   52.3325 C.3     1  ZINC000762020937    0.0200
      8 C8         -1.5378    4.5143   53.6387 C.2     1  ZINC000762020937    0.1900
      9 N9         -1.8436    4.9914   54.8213 N.2     1  ZINC000762020937   -0.4700
     10 C10        -1.6708    3.9703   55.6793 C.2     1  ZINC000762020937    0.1600
     11 C11        -1.8943    4.0097   57.1691 C.3     1  ZINC000762020937    0.2600
     12 H12        -1.9876    5.0456   57.4953 H       1  ZINC000762020937    0.1200
     13 N13        -3.1224    3.2817   57.4981 N.am    1  ZINC000762020937   -0.7100
     14 C14        -4.3221    3.8009   57.1697 C.2     1  ZINC000762020937    0.6600
     15 O15        -4.3850    4.8721   56.5995 O.2     1  ZINC000762020937   -0.5600
     16 O16        -5.4507    3.1326   57.4734 O.3     1  ZINC000762020937   -0.3600
     17 C17        -6.7067    3.7503   57.0872 C.3     1  ZINC000762020937    0.1400
     18 C18        -7.8699    2.8580   57.5252 C.3     1  ZINC000762020937   -0.1800
     19 C19        -6.8311    5.1180   57.7615 C.3     1  ZINC000762020937   -0.1400
     20 C20        -6.7427    3.9258   55.5677 C.3     1  ZINC000762020937   -0.1800
     21 C21        -0.7079    3.3560   57.8803 C.3     1  ZINC000762020937   -0.1000
     22 C22         0.5494    4.1977   57.6538 C.3     1  ZINC000762020937   -0.1400
     23 C23        -0.9984    3.2663   59.3798 C.3     1  ZINC000762020937   -0.1400
     24 N24        -1.2761    2.9434   54.9878 N.2     1  ZINC000762020937   -0.3700
     25 O25        -1.1988    3.2333   53.8125 O.3     1  ZINC000762020937    0.0900
     26 C26        -3.1230    3.8330   50.9923 C.ar    1  ZINC000762020937   -0.1500
     27 C27        -3.3746    2.9513   49.9539 C.ar    1  ZINC000762020937    0.1000
     28 O28        -4.6359    2.4891   49.7427 O.3     1  ZINC000762020937   -0.3100
     29 C29        -5.2163    1.6916   50.7768 C.3     1  ZINC000762020937    0.0200
     30 H30        -2.0785    2.8564   46.5035 H       1  ZINC000762020937    0.0600
     31 H31        -0.7783    1.7973   47.1000 H       1  ZINC000762020937    0.0600
     32 H32        -2.1334    1.1080   46.1743 H       1  ZINC000762020937    0.1000
     33 H33        -0.2379    2.6842   48.7148 H       1  ZINC000762020937    0.1400
     34 H34         0.1958    4.2583   50.5570 H       1  ZINC000762020937    0.1300
     35 H35        -0.6076    5.7528   52.1707 H       1  ZINC000762020937    0.1200
     36 H36        -2.3571    6.0176   52.3647 H       1  ZINC000762020937    0.1200
     37 H37        -3.0721    2.4260   57.9521 H       1  ZINC000762020937    0.4100
     38 H38        -7.8442    2.7330   58.6077 H       1  ZINC000762020937    0.0600
     39 H39        -8.8127    3.3217   57.2352 H       1  ZINC000762020937    0.0700
     40 H40        -7.7812    1.8837   57.0447 H       1  ZINC000762020937    0.0900
     41 H41        -6.0025    5.7537   57.4494 H       1  ZINC000762020937    0.0700
     42 H42        -7.7740    5.5817   57.4716 H       1  ZINC000762020937    0.0800
     43 H43        -6.8055    4.9930   58.8440 H       1  ZINC000762020937    0.0700
     44 H44        -6.6540    2.9514   55.0872 H       1  ZINC000762020937    0.0900
     45 H45        -7.6856    4.3894   55.2777 H       1  ZINC000762020937    0.0700
     46 H46        -5.9141    4.5615   55.2556 H       1  ZINC000762020937    0.0600
     47 H47        -0.5514    2.3542   57.4801 H       1  ZINC000762020937    0.0800
     48 H48         0.3930    5.1995   58.0541 H       1  ZINC000762020937    0.0600
     49 H49         1.3947    3.7320   58.1606 H       1  ZINC000762020937    0.0600
     50 H50         0.7564    4.2615   56.5856 H       1  ZINC000762020937    0.0500
     51 H51        -1.8942    2.6666   59.5412 H       1  ZINC000762020937    0.0500
     52 H52        -0.1533    2.8006   59.8865 H       1  ZINC000762020937    0.0600
     53 H53        -1.1549    4.2681   59.7800 H       1  ZINC000762020937    0.0700
     54 H54        -3.9297    4.1569   51.6331 H       1  ZINC000762020937    0.1400
     55 H55        -5.2674    2.2721   51.6980 H       1  ZINC000762020937    0.0600
     56 H56        -6.2210    1.3890   50.4818 H       1  ZINC000762020937    0.1000
     57 H57        -4.6030    0.8053   50.9395 H       1  ZINC000762020937    0.0600
@<TRIPOS>BOND
     1     1     2    1
     2     1    30    1
     3     1    31    1
     4     1    32    1
     5     2     3    1
     6     3    27   ar
     7     3     4   ar
     8     4     5   ar
     9     4    33    1
    10     5     6   ar
    11     5    34    1
    12     6     7    1
    13     6    26   ar
    14     7     8    1
    15     7    35    1
    16     7    36    1
    17     8    25    1
    18     8     9    2
    19     9    10    1
    20    10    11    1
    21    10    24    2
    22    11    12    1
    23    11    13    1
    24    11    21    1
    25    13    14   am
    26    13    37    1
    27    14    15    2
    28    14    16    1
    29    16    17    1
    30    17    18    1
    31    17    19    1
    32    17    20    1
    33    18    38    1
    34    18    39    1
    35    18    40    1
    36    19    41    1
    37    19    42    1
    38    19    43    1
    39    20    44    1
    40    20    45    1
    41    20    46    1
    42    21    22    1
    43    21    23    1
    44    21    47    1
    45    22    48    1
    46    22    49    1
    47    22    50    1
    48    23    51    1
    49    23    52    1
    50    23    53    1
    51    24    25    1
    52    26    27   ar
    53    26    54    1
    54    27    28    1
    55    28    29    1
    56    29    55    1
    57    29    56    1
    58    29    57    1
@<TRIPOS>SUBSTRUCTURE
     1 ZINC000762020937        1 TEMP              0 ****  ****    0 ROOT


##########                                Name:    ZINC000590699876
##########                DOCK_Rotatable_Bonds:                   9
##########                         Heavy_Atoms:                  30
##########                    Molecular_Weight:              421.54
##########                DOCK_Rotatable_Bonds:                   9
##########                       Formal_Charge:          -0.0300004
##########                     HBond_Acceptors:                   9
##########                        HBond_Donors:                   1
##########                         Heavy_Atoms:                  30
##########                          Grid_Score:          -33.463032
##########                     Grid_vdw_energy:          -32.521114
##########                      Grid_es_energy:           -0.941917
##########           Internal_energy_repulsive:          106.031296

@<TRIPOS>MOLECULE
ZINC000590699876
 65 67 1 0 0
SMALL
USER_CHARGES


@<TRIPOS>ATOM
      1 C1         -3.5573    3.1436   51.5952 C.3     1  ZINC000590699876   -0.1700
      2 C2         -4.7112    2.4117   50.9597 C.2     1  ZINC000590699876    0.5100
      3 O3         -5.0298    2.6587   49.8159 O.2     1  ZINC000590699876   -0.5500
      4 N4         -5.3890    1.4827   51.6624 N.am    1  ZINC000590699876   -0.7200
      5 C5         -6.5096    0.7699   51.0441 C.3     1  ZINC000590699876    0.1100
      6 C6         -7.5118    0.3929   52.1046 C.2     1  ZINC000590699876    0.5300
      7 O7         -7.4474   -0.6927   52.6413 O.2     1  ZINC000590699876   -0.5200
      8 N8         -8.4797    1.2622   52.4564 N.am    1  ZINC000590699876   -0.6000
      9 C9         -8.6737    2.6086   51.8879 C.3     1  ZINC000590699876    0.1000
     10 C10       -10.1720    2.9255   52.1211 C.3     1  ZINC000590699876   -0.1300
     11 C11       -10.4141    2.2802   53.5111 C.3     1  ZINC000590699876   -0.1300
     12 C12        -9.5209    1.0225   53.4663 C.3     1  ZINC000590699876    0.1200
     13 H13        -9.0567    0.8628   54.4395 H       1  ZINC000590699876    0.1000
     14 C14       -10.3475   -0.1799   53.0895 C.2     1  ZINC000590699876    0.5100
     15 O15       -10.2722   -0.6409   51.9702 O.2     1  ZINC000590699876   -0.5200
     16 N16       -11.1703   -0.7431   53.9963 N.am    1  ZINC000590699876   -0.6100
     17 C17       -11.9797   -1.9218   53.6516 C.3     1  ZINC000590699876    0.1000
     18 C18       -11.7554   -2.9959   54.7213 C.3     1  ZINC000590699876    0.0400
     19 N19       -12.0232   -2.4248   56.0480 N.3     1  ZINC000590699876   -0.5200
     20 C20       -11.9870   -3.4641   57.0856 C.3     1  ZINC000590699876    0.0400
     21 C21       -12.7790   -3.0061   58.2830 C.2     1  ZINC000590699876    0.5200
     22 O22       -12.2045   -2.5949   59.2689 O.2     1  ZINC000590699876   -0.5100
     23 N23       -14.1257   -3.0533   58.2585 N.am    1  ZINC000590699876   -0.6100
     24 C24       -14.8359   -3.5487   57.0715 C.3     1  ZINC000590699876    0.1100
     25 C25       -15.8576   -2.4950   56.6328 C.3     1  ZINC000590699876   -0.1400
     26 C26       -16.7694   -2.1518   57.8131 C.3     1  ZINC000590699876   -0.1200
     27 C27       -15.9325   -1.5677   58.9534 C.3     1  ZINC000590699876   -0.1300
     28 C28       -14.9114   -2.6161   59.4206 C.3     1  ZINC000590699876    0.1400
     29 H29       -15.4349   -3.4675   59.8556 H       1  ZINC000590699876    0.0700
     30 C30       -13.9818   -1.9966   60.4660 C.3     1  ZINC000590699876   -0.1400
     31 C31       -11.0858   -1.3375   56.3591 C.3     1  ZINC000590699876    0.0400
     32 C32       -11.2780   -0.1990   55.3585 C.3     1  ZINC000590699876    0.1200
     33 H33        -3.1366    3.8499   50.8795 H       1  ZINC000590699876    0.1000
     34 H34        -3.9092    3.6833   52.4744 H       1  ZINC000590699876    0.0900
     35 H35        -2.7913    2.4269   51.8915 H       1  ZINC000590699876    0.0900
     36 H36        -5.1348    1.2859   52.5776 H       1  ZINC000590699876    0.4100
     37 H37        -6.9870    1.4141   50.3057 H       1  ZINC000590699876    0.1000
     38 H38        -6.1412   -0.1321   50.5553 H       1  ZINC000590699876    0.1000
     39 H39        -8.0472    3.3336   52.4075 H       1  ZINC000590699876    0.0800
     40 H40        -8.4479    2.6061   50.8215 H       1  ZINC000590699876    0.0800
     41 H41       -10.3431    4.0015   52.1548 H       1  ZINC000590699876    0.0900
     42 H42       -10.7938    2.4562   51.3587 H       1  ZINC000590699876    0.0800
     43 H43       -10.0994    2.9530   54.3089 H       1  ZINC000590699876    0.1000
     44 H44       -11.4614    2.0025   53.6302 H       1  ZINC000590699876    0.0900
     45 H45       -13.0341   -1.6467   53.6245 H       1  ZINC000590699876    0.0800
     46 H46       -11.6731   -2.3047   52.6783 H       1  ZINC000590699876    0.0900
     47 H47       -12.4299   -3.8334   54.5429 H       1  ZINC000590699876    0.0900
     48 H48       -10.7233   -3.3438   54.6766 H       1  ZINC000590699876    0.0400
     49 H49       -12.4205   -4.3841   56.6935 H       1  ZINC000590699876    0.1000
     50 H50       -10.9539   -3.6464   57.3813 H       1  ZINC000590699876    0.0600
     51 H51       -14.1230   -3.7240   56.2659 H       1  ZINC000590699876    0.0800
     52 H52       -15.3509   -4.4779   57.3152 H       1  ZINC000590699876    0.0700
     53 H53       -15.3354   -1.5967   56.3034 H       1  ZINC000590699876    0.0700
     54 H54       -16.4574   -2.8892   55.8124 H       1  ZINC000590699876    0.0800
     55 H55       -17.5131   -1.4204   57.4968 H       1  ZINC000590699876    0.0700
     56 H56       -17.2727   -3.0551   58.1577 H       1  ZINC000590699876    0.0600
     57 H57       -15.4095   -0.6781   58.6021 H       1  ZINC000590699876    0.0700
     58 H58       -16.5855   -1.3019   59.7847 H       1  ZINC000590699876    0.0700
     59 H59       -14.5748   -1.6032   61.2918 H       1  ZINC000590699876    0.0400
     60 H60       -13.2976   -2.7578   60.8405 H       1  ZINC000590699876    0.0700
     61 H61       -13.4111   -1.1872   60.0107 H       1  ZINC000590699876    0.0700
     62 H62       -11.2747   -0.9720   57.3685 H       1  ZINC000590699876    0.1100
     63 H63       -10.0630   -1.7084   56.2916 H       1  ZINC000590699876    0.0300
     64 H64       -10.5099    0.5585   55.5137 H       1  ZINC000590699876    0.0900
     65 H65       -12.2651    0.2435   55.4926 H       1  ZINC000590699876    0.0800
@<TRIPOS>BOND
     1     1     2    1
     2     1    33    1
     3     1    34    1
     4     1    35    1
     5     2     3    2
     6     2     4   am
     7     4     5    1
     8     4    36    1
     9     5     6    1
    10     5    37    1
    11     5    38    1
    12     6     7    2
    13     6     8   am
    14     8    12    1
    15     8     9    1
    16     9    10    1
    17     9    39    1
    18     9    40    1
    19    10    11    1
    20    10    41    1
    21    10    42    1
    22    11    12    1
    23    11    43    1
    24    11    44    1
    25    12    13    1
    26    12    14    1
    27    14    15    2
    28    14    16   am
    29    16    32    1
    30    16    17    1
    31    17    18    1
    32    17    45    1
    33    17    46    1
    34    18    19    1
    35    18    47    1
    36    18    48    1
    37    19    20    1
    38    19    31    1
    39    20    21    1
    40    20    49    1
    41    20    50    1
    42    21    22    2
    43    21    23   am
    44    23    28    1
    45    23    24    1
    46    24    25    1
    47    24    51    1
    48    24    52    1
    49    25    26    1
    50    25    53    1
    51    25    54    1
    52    26    27    1
    53    26    55    1
    54    26    56    1
    55    27    28    1
    56    27    57    1
    57    27    58    1
    58    28    29    1
    59    28    30    1
    60    30    59    1
    61    30    60    1
    62    30    61    1
    63    31    32    1
    64    31    62    1
    65    31    63    1
    66    32    64    1
    67    32    65    1
@<TRIPOS>SUBSTRUCTURE
     1 ZINC000590699876        1 TEMP              0 ****  ****    0 ROOT


##########                                Name:    ZINC000461678839
##########                DOCK_Rotatable_Bonds:                   6
##########                         Heavy_Atoms:                  28
##########                    Molecular_Weight:             404.939
##########                DOCK_Rotatable_Bonds:                   6
##########                       Formal_Charge:          -0.0200003
##########                     HBond_Acceptors:                   7
##########                        HBond_Donors:                   0
##########                         Heavy_Atoms:                  28
##########                          Grid_Score:          -33.460949
##########                     Grid_vdw_energy:          -32.647984
##########                      Grid_es_energy:           -0.812965
##########           Internal_energy_repulsive:           13.623100

@<TRIPOS>MOLECULE
ZINC000461678839
 57 60 1 0 0
SMALL
USER_CHARGES


@<TRIPOS>ATOM
      1 C1          4.7209    2.3438   46.1300 C.3     1  ZINC000461678839   -0.1500
      2 C2          3.2445    2.3295   45.7291 C.3     1  ZINC000461678839   -0.0900
      3 H3          3.1418    1.8236   44.7690 H       1  ZINC000461678839    0.0700
      4 C4          2.7466    3.7855   45.5873 C.3     1  ZINC000461678839   -0.1100
      5 C5          1.4702    3.7878   44.7891 C.3     1  ZINC000461678839   -0.1200
      6 C6          0.2116    3.6925   45.6701 C.3     1  ZINC000461678839    0.0600
      7 N7          0.3421    2.7170   46.7747 N.3     1  ZINC000461678839   -0.4600
      8 C8         -0.8869    2.4673   47.3646 C.2     1  ZINC000461678839    0.3700
      9 N9         -1.8085    1.6419   46.9274 N.2     1  ZINC000461678839   -0.3100
     10 N10        -2.8203    1.6580   47.7200 N.2     1  ZINC000461678839   -0.2500
     11 C11        -2.6060    2.4877   48.7014 C.2     1  ZINC000461678839    0.1700
     12 C12        -3.5488    2.7900   49.8376 C.3     1  ZINC000461678839    0.1500
     13 O13        -4.5074    1.7366   49.9541 O.3     1  ZINC000461678839   -0.3100
     14 C14        -5.4182    1.8395   50.9577 C.ar    1  ZINC000461678839    0.1400
     15 C15        -6.3337    0.8196   51.1719 C.ar    1  ZINC000461678839   -0.2000
     16 C16        -7.2588    0.9260   52.1924 C.ar    1  ZINC000461678839   -0.0700
     17 C17        -7.2727    2.0491   53.0005 C.ar    1  ZINC000461678839   -0.0700
     18 Cl18       -8.4364    2.1807   54.2819 Cl      1  ZINC000461678839   -0.0700
     19 C19        -6.3601    3.0672   52.7887 C.ar    1  ZINC000461678839   -0.0700
     20 C20        -5.4299    2.9620   51.7728 C.ar    1  ZINC000461678839   -0.1400
     21 N21        -1.3645    3.0290   48.5127 N.pl3   1  ZINC000461678839   -0.4600
     22 C22        -0.6907    4.0140   49.3623 C.3     1  ZINC000461678839    0.1200
     23 C23        -0.2126    3.3365   50.6481 C.3     1  ZINC000461678839   -0.1400
     24 H24        -1.0427    2.8340   51.1447 H       1  ZINC000461678839    0.0900
     25 C25         0.4390    4.3723   51.5963 C.3     1  ZINC000461678839   -0.1500
     26 C26         1.6537    3.5854   52.1510 C.3     1  ZINC000461678839    0.0500
     27 O27         2.0992    2.8103   51.0173 O.3     1  ZINC000461678839   -0.3700
     28 C28         0.9185    2.3358   50.3421 C.3     1  ZINC000461678839    0.0400
     29 C29         0.9892    1.4867   46.3871 C.3     1  ZINC000461678839    0.0700
     30 C30         2.4847    1.5976   46.7364 C.3     1  ZINC000461678839   -0.1100
     31 H31         5.0845    1.3197   46.2139 H       1  ZINC000461678839    0.0500
     32 H32         5.2982    2.8734   45.3721 H       1  ZINC000461678839    0.0500
     33 H33         4.8318    2.8486   47.0898 H       1  ZINC000461678839    0.0600
     34 H34         2.5599    4.2054   46.5757 H       1  ZINC000461678839    0.0700
     35 H35         3.5004    4.3808   45.0721 H       1  ZINC000461678839    0.0700
     36 H36         1.4221    4.7078   44.2066 H       1  ZINC000461678839    0.0800
     37 H37         1.4835    2.9409   44.1031 H       1  ZINC000461678839    0.0700
     38 H38         0.0064    4.6755   46.0942 H       1  ZINC000461678839    0.0700
     39 H39        -0.6320    3.4013   45.0443 H       1  ZINC000461678839    0.0500
     40 H40        -2.9842    2.8718   50.7663 H       1  ZINC000461678839    0.0800
     41 H41        -4.0641    3.7302   49.6416 H       1  ZINC000461678839    0.1000
     42 H42        -6.3237   -0.0569   50.5410 H       1  ZINC000461678839    0.1400
     43 H43        -7.9717    0.1321   52.3595 H       1  ZINC000461678839    0.1400
     44 H44        -6.3722    3.9430   53.4206 H       1  ZINC000461678839    0.1400
     45 H45        -4.7175    3.7569   51.6078 H       1  ZINC000461678839    0.1400
     46 H46         0.1656    4.4280   48.8297 H       1  ZINC000461678839    0.1100
     47 H47        -1.3861    4.8157   49.6108 H       1  ZINC000461678839    0.1000
     48 H48         0.7657    5.2535   51.0442 H       1  ZINC000461678839    0.0800
     49 H49        -0.2445    4.6490   52.3990 H       1  ZINC000461678839    0.0900
     50 H50         2.4363    4.2692   52.4798 H       1  ZINC000461678839    0.1000
     51 H51         1.3469    2.9308   52.9668 H       1  ZINC000461678839    0.0600
     52 H52         0.6520    1.3460   50.7129 H       1  ZINC000461678839    0.0500
     53 H53         1.0968    2.2956   49.2676 H       1  ZINC000461678839    0.1100
     54 H54         0.5457    0.6517   46.9295 H       1  ZINC000461678839    0.0900
     55 H55         0.8722    1.3323   45.3145 H       1  ZINC000461678839    0.0600
     56 H56         2.9001    0.5940   46.8282 H       1  ZINC000461678839    0.0700
     57 H57         2.5857    2.1071   47.6947 H       1  ZINC000461678839    0.0700
@<TRIPOS>BOND
     1     1     2    1
     2     1    31    1
     3     1    32    1
     4     1    33    1
     5     2     3    1
     6     2    30    1
     7     2     4    1
     8     4     5    1
     9     4    34    1
    10     4    35    1
    11     5     6    1
    12     5    36    1
    13     5    37    1
    14     6     7    1
    15     6    38    1
    16     6    39    1
    17     7     8    1
    18     7    29    1
    19     8    21    1
    20     8     9    2
    21     9    10    1
    22    10    11    2
    23    11    12    1
    24    11    21    1
    25    12    13    1
    26    12    40    1
    27    12    41    1
    28    13    14    1
    29    14    20   ar
    30    14    15   ar
    31    15    16   ar
    32    15    42    1
    33    16    17   ar
    34    16    43    1
    35    17    18    1
    36    17    19   ar
    37    19    20   ar
    38    19    44    1
    39    20    45    1
    40    21    22    1
    41    22    23    1
    42    22    46    1
    43    22    47    1
    44    23    24    1
    45    23    28    1
    46    23    25    1
    47    25    26    1
    48    25    48    1
    49    25    49    1
    50    26    27    1
    51    26    50    1
    52    26    51    1
    53    27    28    1
    54    28    52    1
    55    28    53    1
    56    29    30    1
    57    29    54    1
    58    29    55    1
    59    30    56    1
    60    30    57    1
@<TRIPOS>SUBSTRUCTURE
     1 ZINC000461678839        1 TEMP              0 ****  ****    0 ROOT


##########                                Name:    ZINC001109848453
##########                DOCK_Rotatable_Bonds:                   8
##########                         Heavy_Atoms:                  24
##########                    Molecular_Weight:             328.337
##########                DOCK_Rotatable_Bonds:                   8
##########                       Formal_Charge:          0.00999966
##########                     HBond_Acceptors:                  11
##########                        HBond_Donors:                   2
##########                         Heavy_Atoms:                  24
##########                          Grid_Score:          -33.410492
##########                     Grid_vdw_energy:          -31.151276
##########                      Grid_es_energy:           -2.259217
##########           Internal_energy_repulsive:           10.124060

@<TRIPOS>MOLECULE
ZINC001109848453
 40 43 1 0 0
SMALL
USER_CHARGES


@<TRIPOS>ATOM
      1 O1         -6.5550    1.4303   50.1930 O.2     1  ZINC001109848453   -0.5000
      2 C2         -6.3641    1.2383   51.3752 C.2     1  ZINC001109848453    0.5000
      3 C3         -6.8740   -0.0218   52.0258 C.3     1  ZINC001109848453    0.1100
      4 N4         -8.3190    0.0896   52.2401 N.pl3   1  ZINC001109848453   -0.3700
      5 C5         -9.0221    1.2213   52.4190 C.2     1  ZINC001109848453    0.2600
      6 N6        -10.2800    0.8973   52.5756 N.2     1  ZINC001109848453   -0.5400
      7 C7        -10.4182   -0.4259   52.5034 C.2     1  ZINC001109848453    0.2000
      8 N8         -9.2457   -0.9643   52.2936 N.2     1  ZINC001109848453   -0.2900
      9 N9         -5.6910    2.1490   52.1059 N.am    1  ZINC001109848453   -0.7300
     10 C10        -5.1952    3.3739   51.4733 C.3     1  ZINC001109848453    0.1700
     11 H11        -5.6405    3.4779   50.4839 H       1  ZINC001109848453    0.1000
     12 C12        -3.6726    3.2999   51.3422 C.3     1  ZINC001109848453    0.1200
     13 N13        -3.2945    3.4755   49.9377 N.pl3   1  ZINC001109848453   -0.6800
     14 C14        -1.9976    3.2086   49.5310 C.2     1  ZINC001109848453    0.4900
     15 N15        -0.9746    3.6621   50.2291 N.2     1  ZINC001109848453   -0.5300
     16 C16         0.2818    3.4133   49.8511 C.2     1  ZINC001109848453    0.1400
     17 C17         0.5539    2.6913   48.7445 C.2     1  ZINC001109848453   -0.0500
     18 N18        -0.4684    2.1966   47.9833 N.pl3   1  ZINC001109848453   -0.1800
     19 N19        -0.5264    1.4954   46.9071 N.2     1  ZINC001109848453   -0.1000
     20 N20        -1.7601    1.2949   46.5964 N.2     1  ZINC001109848453   -0.0400
     21 N21        -2.5311    1.8607   47.4627 N.2     1  ZINC001109848453   -0.2600
     22 C22        -1.7582    2.4418   48.3664 C.2     1  ZINC001109848453    0.1000
     23 C23        -5.5749    4.5815   52.3329 C.3     1  ZINC001109848453   -0.1800
     24 C24        -7.0626    4.8183   52.6006 C.3     1  ZINC001109848453   -0.1700
     25 C25        -6.1556    4.3057   53.7212 C.3     1  ZINC001109848453   -0.1700
     26 H26        -6.6674   -0.8743   51.3786 H       1  ZINC001109848453    0.1300
     27 H27        -6.3745   -0.1638   52.9841 H       1  ZINC001109848453    0.1200
     28 H28        -8.6190    2.2232   52.4317 H       1  ZINC001109848453    0.2200
     29 H29       -11.3487   -0.9658   52.5985 H       1  ZINC001109848453    0.2200
     30 H30        -5.5349    1.9935   53.0505 H       1  ZINC001109848453    0.4000
     31 H31        -3.2175    4.0878   51.9422 H       1  ZINC001109848453    0.1000
     32 H32        -3.3245    2.3286   51.6934 H       1  ZINC001109848453    0.0900
     33 H33        -3.9523    3.7789   49.2926 H       1  ZINC001109848453    0.4200
     34 H34         1.0980    3.7987   50.4442 H       1  ZINC001109848453    0.2000
     35 H35         1.5788    2.5045   48.4597 H       1  ZINC001109848453    0.1900
     36 H36        -4.9377    5.4585   52.2190 H       1  ZINC001109848453    0.1100
     37 H37        -7.4045    5.8514   52.6628 H       1  ZINC001109848453    0.1000
     38 H38        -7.7707    4.1139   52.1644 H       1  ZINC001109848453    0.1000
     39 H39        -6.2673    3.2640   54.0223 H       1  ZINC001109848453    0.1200
     40 H40        -5.9010    5.0015   54.5206 H       1  ZINC001109848453    0.0900
@<TRIPOS>BOND
     1     1     2    2
     2     2     3    1
     3     2     9   am
     4     3     4    1
     5     3    26    1
     6     3    27    1
     7     4     8    1
     8     4     5    1
     9     5     6    2
    10     5    28    1
    11     6     7    1
    12     7     8    2
    13     7    29    1
    14     9    10    1
    15     9    30    1
    16    10    11    1
    17    10    12    1
    18    10    23    1
    19    12    13    1
    20    12    31    1
    21    12    32    1
    22    13    14    1
    23    13    33    1
    24    14    22    1
    25    14    15    2
    26    15    16    1
    27    16    17    2
    28    16    34    1
    29    17    18    1
    30    17    35    1
    31    18    22    1
    32    18    19    1
    33    19    20    2
    34    20    21    1
    35    21    22    2
    36    23    25    1
    37    23    24    1
    38    23    36    1
    39    24    25    1
    40    24    37    1
    41    24    38    1
    42    25    39    1
    43    25    40    1
@<TRIPOS>SUBSTRUCTURE
     1 ZINC001109848453        1 TEMP              0 ****  ****    0 ROOT


##########                                Name:    ZINC000466160459
##########                DOCK_Rotatable_Bonds:                   9
##########                         Heavy_Atoms:                  30
##########                    Molecular_Weight:             420.512
##########                DOCK_Rotatable_Bonds:                   9
##########                       Formal_Charge:          -0.0300007
##########                     HBond_Acceptors:                  10
##########                        HBond_Donors:                   2
##########                         Heavy_Atoms:                  30
##########                          Grid_Score:          -33.380375
##########                     Grid_vdw_energy:          -32.587074
##########                      Grid_es_energy:           -0.793299
##########           Internal_energy_repulsive:          100.326019

@<TRIPOS>MOLECULE
ZINC000466160459
 62 64 1 0 0
SMALL
USER_CHARGES


@<TRIPOS>ATOM
      1 C1          2.5321    2.4345   54.9812 C.3     1  ZINC000466160459    0.0300
      2 O2          2.3209    2.6009   53.5777 O.3     1  ZINC000466160459   -0.3900
      3 C3          3.4657    3.0820   52.8706 C.3     1  ZINC000466160459    0.0500
      4 C4          3.1418    3.1740   51.3781 C.3     1  ZINC000466160459    0.1200
      5 N5          2.6913    1.8665   50.8947 N.am    1  ZINC000466160459   -0.7300
      6 C6          3.5791    1.0005   50.3674 C.2     1  ZINC000466160459    0.5200
      7 O7          4.7513    1.3030   50.2944 O.2     1  ZINC000466160459   -0.5200
      8 C8          3.1153   -0.3438   49.8684 C.3     1  ZINC000466160459   -0.1300
      9 H9          3.0969   -1.0526   50.6963 H       1  ZINC000466160459    0.1100
     10 C10         4.0748   -0.8462   48.7871 C.3     1  ZINC000466160459   -0.1000
     11 C11         4.1270    0.1647   47.6394 C.3     1  ZINC000466160459   -0.1500
     12 C12         2.7319    0.3024   47.0217 C.3     1  ZINC000466160459    0.1600
     13 H13         2.4423   -0.6412   46.5593 H       1  ZINC000466160459    0.0700
     14 C14         2.7459    1.4085   45.9647 C.3     1  ZINC000466160459   -0.1400
     15 N15         1.7761    0.6443   48.0839 N.am    1  ZINC000466160459   -0.6200
     16 C16         0.9760    1.7226   47.9667 C.2     1  ZINC000466160459    0.7100
     17 O17         1.0411    2.4229   46.9750 O.2     1  ZINC000466160459   -0.5500
     18 N18         0.1039    2.0245   48.9488 N.am    1  ZINC000466160459   -0.7300
     19 C19        -0.7658    3.1965   48.8215 C.3     1  ZINC000466160459    0.1600
     20 H20        -0.7906    3.5175   47.7802 H       1  ZINC000466160459    0.1300
     21 C21        -0.2196    4.3318   49.6908 C.3     1  ZINC000466160459   -0.1400
     22 C22        -0.4508    3.9695   51.1627 C.3     1  ZINC000466160459   -0.1400
     23 C23        -1.9546    3.9815   51.4397 C.3     1  ZINC000466160459    0.1100
     24 N24        -2.6622    3.1800   50.4490 N.am    1  ZINC000466160459   -0.5200
     25 C25        -3.9567    2.7428   50.7609 C.2     1  ZINC000466160459    0.2800
     26 N26        -4.3582    1.4944   50.8084 N.2     1  ZINC000466160459   -0.2600
     27 N27        -5.7153    1.4849   51.1552 N.pl3   1  ZINC000466160459   -0.3800
     28 C28        -6.5537    0.2946   51.3176 C.3     1  ZINC000466160459    0.1000
     29 C29        -6.1153    2.7642   51.3140 C.2     1  ZINC000466160459    0.0700
     30 C30        -5.0493    3.5638   51.0830 C.2     1  ZINC000466160459   -0.2900
     31 C31        -2.1547    2.8377   49.2661 C.2     1  ZINC000466160459    0.4900
     32 O32        -2.8523    2.2016   48.5046 O.2     1  ZINC000466160459   -0.4700
     33 C33         1.7085   -0.2120   49.2768 C.3     1  ZINC000466160459    0.1200
     34 H34         1.6169    2.0667   55.4452 H       1  ZINC000466160459    0.0900
     35 H35         3.3361    1.7170   55.1450 H       1  ZINC000466160459    0.0400
     36 H36         2.8043    3.3926   55.4237 H       1  ZINC000466160459    0.0400
     37 H37         3.7359    4.0692   53.2453 H       1  ZINC000466160459    0.0600
     38 H38         4.2996    2.3960   53.0198 H       1  ZINC000466160459    0.0700
     39 H39         2.3534    3.9104   51.2221 H       1  ZINC000466160459    0.0800
     40 H40         4.0345    3.4759   50.8305 H       1  ZINC000466160459    0.0800
     41 H41         1.7539    1.6241   50.9542 H       1  ZINC000466160459    0.4000
     42 H42         5.0715   -0.9644   49.2125 H       1  ZINC000466160459    0.0700
     43 H43         3.7252   -1.8069   48.4094 H       1  ZINC000466160459    0.0700
     44 H44         4.4529    1.1323   48.0212 H       1  ZINC000466160459    0.1000
     45 H45         4.8283   -0.1824   46.8805 H       1  ZINC000466160459    0.0700
     46 H46         3.5323    1.2063   45.2376 H       1  ZINC000466160459    0.0400
     47 H47         1.7814    1.4388   45.4577 H       1  ZINC000466160459    0.0800
     48 H48         2.9339    2.3684   46.4458 H       1  ZINC000466160459    0.0600
     49 H49         0.0519    1.4656   49.7401 H       1  ZINC000466160459    0.3900
     50 H50         0.8476    4.4544   49.5063 H       1  ZINC000466160459    0.0900
     51 H51        -0.7421    5.2588   49.4546 H       1  ZINC000466160459    0.0900
     52 H52        -0.0501    2.9755   51.3620 H       1  ZINC000466160459    0.0700
     53 H53         0.0445    4.7008   51.8015 H       1  ZINC000466160459    0.1000
     54 H54        -2.1413    3.5736   52.4330 H       1  ZINC000466160459    0.0900
     55 H55        -2.3200    5.0076   51.4005 H       1  ZINC000466160459    0.0800
     56 H56        -6.5068   -0.0444   52.3525 H       1  ZINC000466160459    0.0700
     57 H57        -7.5847    0.5387   51.0616 H       1  ZINC000466160459    0.0900
     58 H58        -6.1934   -0.4962   50.6596 H       1  ZINC000466160459    0.0900
     59 H59        -7.1090    3.0910   51.5822 H       1  ZINC000466160459    0.1800
     60 H60        -5.0417    4.6427   51.1303 H       1  ZINC000466160459    0.1500
     61 H61         1.3352   -1.1976   48.9983 H       1  ZINC000466160459    0.0900
     62 H62         1.0426    0.2386   50.0127 H       1  ZINC000466160459    0.0700
@<TRIPOS>BOND
     1     1     2    1
     2     1    34    1
     3     1    35    1
     4     1    36    1
     5     2     3    1
     6     3     4    1
     7     3    37    1
     8     3    38    1
     9     4     5    1
    10     4    39    1
    11     4    40    1
    12     5     6   am
    13     5    41    1
    14     6     7    2
    15     6     8    1
    16     8     9    1
    17     8    33    1
    18     8    10    1
    19    10    11    1
    20    10    42    1
    21    10    43    1
    22    11    12    1
    23    11    44    1
    24    11    45    1
    25    12    13    1
    26    12    14    1
    27    12    15    1
    28    14    46    1
    29    14    47    1
    30    14    48    1
    31    15    16   am
    32    15    33    1
    33    16    17    2
    34    16    18   am
    35    18    19    1
    36    18    49    1
    37    19    20    1
    38    19    31    1
    39    19    21    1
    40    21    22    1
    41    21    50    1
    42    21    51    1
    43    22    23    1
    44    22    52    1
    45    22    53    1
    46    23    24    1
    47    23    54    1
    48    23    55    1
    49    24    25    1
    50    24    31   am
    51    25    30    1
    52    25    26    2
    53    26    27    1
    54    27    28    1
    55    27    29    1
    56    28    56    1
    57    28    57    1
    58    28    58    1
    59    29    30    2
    60    29    59    1
    61    30    60    1
    62    31    32    2
    63    33    61    1
    64    33    62    1
@<TRIPOS>SUBSTRUCTURE
     1 ZINC000466160459        1 TEMP              0 ****  ****    0 ROOT


##########                                Name:    ZINC000058174787
##########                DOCK_Rotatable_Bonds:                   9
##########                         Heavy_Atoms:                  27
##########                    Molecular_Weight:             413.882
##########                DOCK_Rotatable_Bonds:                   9
##########                       Formal_Charge:           0.0200002
##########                     HBond_Acceptors:                  10
##########                        HBond_Donors:                   1
##########                         Heavy_Atoms:                  27
##########                          Grid_Score:          -33.341827
##########                     Grid_vdw_energy:          -33.270180
##########                      Grid_es_energy:           -0.071647
##########           Internal_energy_repulsive:            5.441760

@<TRIPOS>MOLECULE
ZINC000058174787
 47 48 1 0 0
SMALL
USER_CHARGES


@<TRIPOS>ATOM
      1 C1        -11.7046   -2.4454   53.4194 C.3     1  ZINC000058174787   -0.0700
      2 C2        -10.9491   -1.2183   52.9783 C.2     1  ZINC000058174787    0.2100
      3 N3         -9.7229   -0.9197   53.3105 N.2     1  ZINC000058174787   -0.4200
      4 C4         -9.3794    0.2424   52.7355 C.2     1  ZINC000058174787   -0.5600
      5 S5         -7.8228    1.0535   52.8895 S.o2    1  ZINC000058174787    2.7400
      6 O6         -7.9686    2.0067   53.9332 O.2     1  ZINC000058174787   -0.9500
      7 O7         -6.8368    0.0304   52.9033 O.2     1  ZINC000058174787   -0.9600
      8 N8         -7.5805    1.9177   51.4976 N.am    1  ZINC000058174787   -1.1100
      9 C9         -6.3575    2.7062   51.3286 C.3     1  ZINC000058174787    0.1300
     10 C10        -5.3683    1.9320   50.4550 C.3     1  ZINC000058174787   -0.1200
     11 C11        -4.0825    2.7096   50.3420 C.2     1  ZINC000058174787    0.4700
     12 O12        -3.5432    3.1331   51.3369 O.2     1  ZINC000058174787   -0.5000
     13 O13        -3.5361    2.9317   49.1362 O.3     1  ZINC000058174787   -0.3300
     14 C14        -2.0866    2.9055   49.0544 C.3     1  ZINC000058174787    0.0400
     15 H15        -1.6820    2.4052   49.9341 H       1  ZINC000058174787    0.1200
     16 C16        -1.5534    4.3382   48.9919 C.3     1  ZINC000058174787   -0.1700
     17 C17        -1.6669    2.1588   47.8145 C.2     1  ZINC000058174787    0.4000
     18 O18        -2.5059    1.6715   47.0870 O.2     1  ZINC000058174787   -0.4200
     19 C19        -0.2397    2.0211   47.4866 C.ar    1  ZINC000058174787   -0.1600
     20 C20         0.6754    1.6440   48.4753 C.ar    1  ZINC000058174787   -0.0600
     21 C21         2.0111    1.5166   48.1607 C.ar    1  ZINC000058174787   -0.1200
     22 C22         2.4485    1.7610   46.8688 C.ar    1  ZINC000058174787    0.0000
     23 Cl23        4.1327    1.5973   46.4815 Cl      1  ZINC000058174787   -0.0500
     24 C24         1.5478    2.1349   45.8844 C.ar    1  ZINC000058174787   -0.1200
     25 C25         0.2084    2.2612   46.1831 C.ar    1  ZINC000058174787   -0.0400
     26 C26       -10.4327    0.6805   52.0199 C.2     1  ZINC000058174787    0.0700
     27 N27       -11.4269   -0.2483   52.1692 N.pl3   1  ZINC000058174787   -0.4500
     28 C28       -12.7628   -0.1958   51.5702 C.3     1  ZINC000058174787    0.0600
     29 H29       -11.5355   -3.2521   52.7061 H       1  ZINC000058174787    0.0900
     30 H30       -11.3548   -2.7528   54.4049 H       1  ZINC000058174787    0.1000
     31 H31       -12.7698   -2.2191   53.4662 H       1  ZINC000058174787    0.0800
     32 H32        -8.2484    1.9016   50.7944 H       1  ZINC000058174787    0.4200
     33 H33        -6.6000    3.6548   50.8496 H       1  ZINC000058174787    0.0900
     34 H34        -5.9095    2.8957   52.3041 H       1  ZINC000058174787    0.0900
     35 H35        -5.1672    0.9608   50.9070 H       1  ZINC000058174787    0.1200
     36 H36        -5.7949    1.7892   49.4621 H       1  ZINC000058174787    0.1200
     37 H37        -1.9580    4.8384   48.1121 H       1  ZINC000058174787    0.0800
     38 H38        -1.8569    4.8783   49.8888 H       1  ZINC000058174787    0.0800
     39 H39        -0.4653    4.3186   48.9305 H       1  ZINC000058174787    0.0800
     40 H40         0.3360    1.4536   49.4827 H       1  ZINC000058174787    0.1400
     41 H41         2.7187    1.2258   48.9231 H       1  ZINC000058174787    0.1400
     42 H42         1.8957    2.3238   44.8796 H       1  ZINC000058174787    0.1400
     43 H43        -0.4925    2.5523   45.4149 H       1  ZINC000058174787    0.1500
     44 H44       -10.4820    1.5882   51.4367 H       1  ZINC000058174787    0.1900
     45 H45       -12.7448   -0.6887   50.5982 H       1  ZINC000058174787    0.0900
     46 H46       -13.4735   -0.7039   52.2220 H       1  ZINC000058174787    0.1000
     47 H47       -13.0641    0.8441   51.4447 H       1  ZINC000058174787    0.0900
@<TRIPOS>BOND
     1     1     2    1
     2     1    29    1
     3     1    30    1
     4     1    31    1
     5     2    27    1
     6     2     3    2
     7     3     4    1
     8     4     5    1
     9     4    26    2
    10     5     6    2
    11     5     7    2
    12     5     8   am
    13     8     9    1
    14     8    32    1
    15     9    10    1
    16     9    33    1
    17     9    34    1
    18    10    11    1
    19    10    35    1
    20    10    36    1
    21    11    12    2
    22    11    13    1
    23    13    14    1
    24    14    15    1
    25    14    16    1
    26    14    17    1
    27    16    37    1
    28    16    38    1
    29    16    39    1
    30    17    18    2
    31    17    19    1
    32    19    25   ar
    33    19    20   ar
    34    20    21   ar
    35    20    40    1
    36    21    22   ar
    37    21    41    1
    38    22    23    1
    39    22    24   ar
    40    24    25   ar
    41    24    42    1
    42    25    43    1
    43    26    27    1
    44    26    44    1
    45    27    28    1
    46    28    45    1
    47    28    46    1
    48    28    47    1
@<TRIPOS>SUBSTRUCTURE
     1 ZINC000058174787        1 TEMP              0 ****  ****    0 ROOT


##########                                Name:    ZINC000355549087
##########                DOCK_Rotatable_Bonds:                   9
##########                         Heavy_Atoms:                  23
##########                    Molecular_Weight:             336.415
##########                DOCK_Rotatable_Bonds:                   9
##########                       Formal_Charge:        -9.53674e-07
##########                     HBond_Acceptors:                   8
##########                        HBond_Donors:                   4
##########                         Heavy_Atoms:                  23
##########                          Grid_Score:          -33.317005
##########                     Grid_vdw_energy:          -30.623716
##########                      Grid_es_energy:           -2.693288
##########           Internal_energy_repulsive:            9.223547

@<TRIPOS>MOLECULE
ZINC000355549087
 43 44 1 0 0
SMALL
USER_CHARGES


@<TRIPOS>ATOM
      1 C1         -8.3584    3.9961   53.9349 C.3     1  <0>        -0.1500
      2 C2         -7.6139    2.6596   53.9199 C.3     1  <0>        -0.1200
      3 C3         -8.0435    1.8504   52.6945 C.3     1  <0>        -0.1000
      4 H4         -8.3011    2.5301   51.8823 H       1  <0>         0.0800
      5 C5         -9.2613    0.9950   53.0494 C.3     1  <0>        -0.1500
      6 C6         -6.8933    0.9424   52.2542 C.3     1  <0>         0.0900
      7 H7         -6.3881    0.5435   53.1339 H       1  <0>         0.1000
      8 O8         -7.4104   -0.1359   51.4719 O.3     1  <0>        -0.3500
      9 C9         -6.5733   -1.2938   51.4530 C.3     1  <0>         0.0200
     10 C10        -5.9137    1.7368   51.4295 C.2     1  <0>         0.5100
     11 O11        -6.1931    2.0503   50.2917 O.2     1  <0>        -0.4800
     12 N12        -4.7272    2.0990   51.9562 N.am    1  <0>        -0.6200
     13 C13        -3.8246    2.8329   51.1962 C.2     1  <0>         0.2400
     14 N14        -3.3283    2.4490   50.0636 N.2     1  <0>        -0.5000
     15 C15        -2.4779    3.2759   49.4697 C.2     1  <0>         0.1700
     16 C16        -1.8302    2.9697   48.1685 C.2     1  <0>        -0.1100
     17 C17        -2.1323    1.9256   47.3420 C.2     1  <0>         0.0600
     18 N18        -1.3244    1.9892   46.2555 N.pl3   1  <0>        -0.5400
     19 C19        -0.4956    3.0810   46.3815 C.2     1  <0>        -0.0600
     20 C20         0.5271    3.5031   45.4180 C.2     1  <0>         0.5900
     21 N21         0.2670    3.4586   44.0963 N.am    1  <0>        -0.8600
     22 O22         1.6102    3.8934   45.8122 O.2     1  <0>        -0.5300
     23 C23        -0.7968    3.7060   47.5593 C.2     1  <0>        -0.0600
     24 C24        -2.2530    4.4158   50.1476 C.2     1  <0>        -0.3200
     25 S25        -3.2182    4.3735   51.6206 S.3     1  <0>         0.2500
     26 H26        -8.0524    4.5727   54.8079 H       1  <0>         0.0600
     27 H27        -8.1212    4.5544   53.0294 H       1  <0>         0.0600
     28 H28        -9.4322    3.8134   53.9784 H       1  <0>         0.0600
     29 H29        -6.5402    2.8422   53.8765 H       1  <0>         0.0600
     30 H30        -7.8512    2.1012   54.8255 H       1  <0>         0.0700
     31 H31        -9.0037    0.3153   53.8617 H       1  <0>         0.0700
     32 H32       -10.0807    1.6419   53.3631 H       1  <0>         0.0600
     33 H33        -9.5674    0.4186   52.1764 H       1  <0>         0.0500
     34 H34        -6.9848   -2.0282   50.7605 H       1  <0>         0.0900
     35 H35        -5.5708   -1.0123   51.1308 H       1  <0>         0.0500
     36 H36        -6.5260   -1.7243   52.4533 H       1  <0>         0.0500
     37 H37        -4.5032    1.8472   52.8658 H       1  <0>         0.4200
     38 H38        -2.8879    1.1755   47.5235 H       1  <0>         0.1800
     39 H39        -1.3293    1.3671   45.5113 H       1  <0>         0.4200
     40 H40         0.9429    3.7389   43.4593 H       1  <0>         0.4000
     41 H41        -0.5959    3.1465   43.7820 H       1  <0>         0.4100
     42 H42        -0.3257    4.5950   47.9520 H       1  <0>         0.1500
     43 H43        -1.5982    5.2179   49.8409 H       1  <0>         0.1800
@<TRIPOS>BOND
     1     1     2    1
     2     1    26    1
     3     1    27    1
     4     1    28    1
     5     2     3    1
     6     2    29    1
     7     2    30    1
     8     3     4    1
     9     3     5    1
    10     3     6    1
    11     5    31    1
    12     5    32    1
    13     5    33    1
    14     6     7    1
    15     6     8    1
    16     6    10    1
    17     8     9    1
    18     9    34    1
    19     9    35    1
    20     9    36    1
    21    10    11    2
    22    10    12   am
    23    12    13    1
    24    12    37    1
    25    13    25    1
    26    13    14    2
    27    14    15    1
    28    15    16    1
    29    15    24    2
    30    16    23    1
    31    16    17    2
    32    17    18    1
    33    17    38    1
    34    18    19    1
    35    18    39    1
    36    19    20    1
    37    19    23    2
    38    20    21   am
    39    20    22    2
    40    21    40    1
    41    21    41    1
    42    23    42    1
    43    24    25    1
    44    24    43    1
@<TRIPOS>SUBSTRUCTURE
     1 <0>         1 TEMP              0 ****  ****    0 ROOT


##########                                Name:    ZINC000654382142
##########                DOCK_Rotatable_Bonds:                  14
##########                         Heavy_Atoms:                  24
##########                    Molecular_Weight:             379.401
##########                DOCK_Rotatable_Bonds:                  14
##########                       Formal_Charge:          0.00999933
##########                     HBond_Acceptors:                  12
##########                        HBond_Donors:                   2
##########                         Heavy_Atoms:                  24
##########                          Grid_Score:          -33.276878
##########                     Grid_vdw_energy:          -31.751602
##########                      Grid_es_energy:           -1.525275
##########           Internal_energy_repulsive:           19.626356

@<TRIPOS>MOLECULE
ZINC000654382142
 48 47 1 0 0
SMALL
USER_CHARGES


@<TRIPOS>ATOM
      1 C1         -6.7455   -1.5818   51.6249 C.3     1  ZINC000654382142    0.0300
      2 O2         -6.6568   -0.2366   51.1506 O.3     1  ZINC000654382142   -0.3700
      3 C3         -7.1871    0.7346   52.0548 C.3     1  ZINC000654382142    0.0400
      4 C4         -7.1256    2.1201   51.4086 C.3     1  ZINC000654382142    0.1400
      5 N5         -5.7620    2.6461   51.5100 N.am    1  ZINC000654382142   -0.6100
      6 C6         -5.3418    3.3645   52.7156 C.3     1  ZINC000654382142    0.0800
      7 C7         -5.2402    4.8600   52.4087 C.3     1  ZINC000654382142    0.0500
      8 H8         -4.7106    5.0025   51.4668 H       1  ZINC000654382142    0.1400
      9 O9         -4.5272    5.5146   53.4601 O.3     1  ZINC000654382142   -0.5200
     10 C10        -6.6457    5.4547   52.2985 C.3     1  ZINC000654382142    0.4200
     11 F11        -7.4391    4.9734   53.3456 F       1  ZINC000654382142   -0.1800
     12 F12        -6.5691    6.8495   52.3745 F       1  ZINC000654382142   -0.1700
     13 F13        -7.2139    5.0847   51.0749 F       1  ZINC000654382142   -0.1800
     14 C14        -4.8942    2.4692   50.4941 C.2     1  ZINC000654382142    0.7100
     15 O15        -5.2435    1.8743   49.4928 O.2     1  ZINC000654382142   -0.5600
     16 N16        -3.6394    2.9517   50.5880 N.am    1  ZINC000654382142   -0.7500
     17 C17        -2.6955    2.7579   49.4843 C.3     1  ZINC000654382142    0.1400
     18 C18        -1.4775    3.6606   49.6905 C.3     1  ZINC000654382142   -0.1600
     19 C19        -0.7451    3.8406   48.3594 C.3     1  ZINC000654382142    0.1200
     20 N20        -0.0397    2.6026   48.0188 N.am    1  ZINC000654382142   -1.0000
     21 C21         0.8301    1.9596   49.0068 C.3     1  ZINC000654382142    0.0900
     22 S22        -0.2256    1.9300   46.5170 S.o2    1  ZINC000654382142    2.6100
     23 C23         0.3587    3.2102   45.3722 C.3     1  ZINC000654382142   -0.6800
     24 O24         0.6612    0.8197   46.5181 O.2     1  ZINC000654382142   -0.9500
     25 O25        -1.6287    1.7469   46.3861 O.2     1  ZINC000654382142   -0.9500
     26 H26        -6.3221   -2.2577   50.8819 H       1  ZINC000654382142    0.0900
     27 H27        -6.1909   -1.6750   52.5587 H       1  ZINC000654382142    0.0400
     28 H28        -7.7909   -1.8385   51.7959 H       1  ZINC000654382142    0.0400
     29 H29        -8.2231    0.4876   52.2867 H       1  ZINC000654382142    0.0500
     30 H30        -6.5995    0.7354   52.9728 H       1  ZINC000654382142    0.0600
     31 H31        -7.4086    2.0442   50.3587 H       1  ZINC000654382142    0.0900
     32 H32        -7.8133    2.7916   51.9227 H       1  ZINC000654382142    0.1000
     33 H33        -6.0738    3.2049   53.5073 H       1  ZINC000654382142    0.1000
     34 H34        -4.3695    2.9932   53.0395 H       1  ZINC000654382142    0.1000
     35 H35        -4.8533    5.3056   54.3460 H       1  ZINC000654382142    0.3900
     36 H36        -3.3612    3.4274   51.3862 H       1  ZINC000654382142    0.3900
     37 H37        -2.3756    1.7162   49.4587 H       1  ZINC000654382142    0.0700
     38 H38        -3.1811    3.0122   48.5422 H       1  ZINC000654382142    0.0700
     39 H39        -1.8041    4.6326   50.0598 H       1  ZINC000654382142    0.0700
     40 H40        -0.8051    3.2033   50.4162 H       1  ZINC000654382142    0.0800
     41 H41        -1.4665    4.0749   47.5765 H       1  ZINC000654382142    0.0900
     42 H42        -0.0267    4.6558   48.4472 H       1  ZINC000654382142    0.1000
     43 H43         0.2485    1.2510   49.5965 H       1  ZINC000654382142    0.0600
     44 H44         1.6343    1.4319   48.4941 H       1  ZINC000654382142    0.0700
     45 H45         1.2547    2.7176   49.6650 H       1  ZINC000654382142    0.0700
     46 H46         1.4017    3.4419   45.5881 H       1  ZINC000654382142    0.1300
     47 H47         0.2714    2.8487   44.3476 H       1  ZINC000654382142    0.1300
     48 H48        -0.2458    4.1091   45.4932 H       1  ZINC000654382142    0.1300
@<TRIPOS>BOND
     1     1     2    1
     2     1    26    1
     3     1    27    1
     4     1    28    1
     5     2     3    1
     6     3     4    1
     7     3    29    1
     8     3    30    1
     9     4     5    1
    10     4    31    1
    11     4    32    1
    12     5     6    1
    13     5    14   am
    14     6     7    1
    15     6    33    1
    16     6    34    1
    17     7     8    1
    18     7     9    1
    19     7    10    1
    20     9    35    1
    21    10    11    1
    22    10    12    1
    23    10    13    1
    24    14    15    2
    25    14    16   am
    26    16    17    1
    27    16    36    1
    28    17    18    1
    29    17    37    1
    30    17    38    1
    31    18    19    1
    32    18    39    1
    33    18    40    1
    34    19    20    1
    35    19    41    1
    36    19    42    1
    37    20    21    1
    38    20    22   am
    39    21    43    1
    40    21    44    1
    41    21    45    1
    42    22    23    1
    43    22    24    2
    44    22    25    2
    45    23    46    1
    46    23    47    1
    47    23    48    1
@<TRIPOS>SUBSTRUCTURE
     1 ZINC000654382142        1 TEMP              0 ****  ****    0 ROOT


##########                                Name:    ZINC000583220082
##########                DOCK_Rotatable_Bonds:                   9
##########                         Heavy_Atoms:                  29
##########                    Molecular_Weight:             417.492
##########                DOCK_Rotatable_Bonds:                   9
##########                       Formal_Charge:          -0.0400006
##########                     HBond_Acceptors:                  11
##########                        HBond_Donors:                   3
##########                         Heavy_Atoms:                  29
##########                          Grid_Score:          -33.260311
##########                     Grid_vdw_energy:          -29.387842
##########                      Grid_es_energy:           -3.872469
##########           Internal_energy_repulsive:           16.107943

@<TRIPOS>MOLECULE
ZINC000583220082
 52 54 1 0 0
SMALL
USER_CHARGES


@<TRIPOS>ATOM
      1 C1          3.3557   -4.9048   61.6490 C.3     1  ZINC000583220082    0.0800
      2 N2          2.7010   -4.0574   62.6486 N.am    1  ZINC000583220082   -0.6300
      3 C3          1.9794   -4.6684   63.7676 C.3     1  ZINC000583220082    0.0800
      4 C4          2.7625   -2.7155   62.5388 C.2     1  ZINC000583220082    0.5100
      5 O5          3.3610   -2.2096   61.6131 O.2     1  ZINC000583220082   -0.5300
      6 C6          2.0874   -1.8437   63.5660 C.3     1  ZINC000583220082   -0.1000
      7 C7          1.3793   -0.7077   62.8737 C.ar    1  ZINC000583220082   -0.0800
      8 C8          0.5774   -0.9615   61.7759 C.ar    1  ZINC000583220082   -0.0800
      9 C9         -0.0729    0.0771   61.1390 C.ar    1  ZINC000583220082   -0.1400
     10 C10         0.0786    1.3778   61.6028 C.ar    1  ZINC000583220082    0.1400
     11 N11        -0.5783    2.4310   60.9612 N.am    1  ZINC000583220082   -0.6400
     12 C12         0.1010    3.2371   60.1214 C.2     1  ZINC000583220082    0.5100
     13 O13         1.2834    3.0482   59.9224 O.2     1  ZINC000583220082   -0.4900
     14 C14        -0.6012    4.3629   59.4355 C.2     1  ZINC000583220082    0.5100
     15 O15        -0.5012    5.4929   59.8665 O.2     1  ZINC000583220082   -0.5100
     16 N16        -1.3458    4.1237   58.3379 N.am    1  ZINC000583220082   -0.5800
     17 C17        -2.0404    5.2186   57.6437 C.3     1  ZINC000583220082    0.0600
     18 C18        -1.6891    5.1507   56.1536 C.3     1  ZINC000583220082    0.0300
     19 N19        -1.9860    3.8051   55.6446 N.3     1  ZINC000583220082   -0.4300
     20 C20        -1.8354    3.7504   54.2712 C.2     1  ZINC000583220082    0.2900
     21 N21        -2.7578    3.4676   53.3757 N.2     1  ZINC000583220082   -0.5700
     22 C22        -2.3814    3.4755   52.1137 C.2     1  ZINC000583220082    0.5400
     23 N23        -3.2835    3.1896   51.0897 N.pl3   1  ZINC000583220082   -0.8200
     24 N24        -1.1331    3.7609   51.8550 N.2     1  ZINC000583220082   -0.5500
     25 S25        -0.4019    4.0449   53.3624 S.3     1  ZINC000583220082    0.2000
     26 C26        -1.1556    2.7898   56.3061 C.3     1  ZINC000583220082    0.0500
     27 C27        -1.4801    2.7619   57.7989 C.3     1  ZINC000583220082    0.1100
     28 C28         0.8847    1.6291   62.7062 C.ar    1  ZINC000583220082   -0.1200
     29 C29         1.5282    0.5852   63.3411 C.ar    1  ZINC000583220082   -0.0800
     30 H30         2.6560   -5.1214   60.8417 H       1  ZINC000583220082    0.0500
     31 H31         4.2257   -4.3860   61.2462 H       1  ZINC000583220082    0.0800
     32 H32         3.6727   -5.8378   62.1151 H       1  ZINC000583220082    0.0700
     33 H33         2.0387   -5.7540   63.6887 H       1  ZINC000583220082    0.0800
     34 H34         2.4281   -4.3475   64.7077 H       1  ZINC000583220082    0.0600
     35 H35         0.9349   -4.3585   63.7390 H       1  ZINC000583220082    0.0600
     36 H36         1.3634   -2.4358   64.1258 H       1  ZINC000583220082    0.1000
     37 H37         2.8352   -1.4426   64.2501 H       1  ZINC000583220082    0.1000
     38 H38         0.4600   -1.9730   61.4159 H       1  ZINC000583220082    0.1300
     39 H39        -0.6984   -0.1217   60.2814 H       1  ZINC000583220082    0.1300
     40 H40        -1.5232    2.5820   61.1202 H       1  ZINC000583220082    0.4200
     41 H41        -3.1173    5.1082   57.7713 H       1  ZINC000583220082    0.0900
     42 H42        -1.7165    6.1755   58.0529 H       1  ZINC000583220082    0.1700
     43 H43        -2.2802    5.8851   55.6067 H       1  ZINC000583220082    0.1100
     44 H44        -0.6286    5.3642   56.0198 H       1  ZINC000583220082    0.0700
     45 H45        -2.9833    3.1808   50.1674 H       1  ZINC000583220082    0.4200
     46 H46        -4.2112    2.9993   51.2998 H       1  ZINC000583220082    0.4200
     47 H47        -1.3600    1.8121   55.8698 H       1  ZINC000583220082    0.1100
     48 H48        -0.1026    3.0363   56.1703 H       1  ZINC000583220082    0.0600
     49 H49        -0.7884    2.0935   58.3115 H       1  ZINC000583220082    0.1100
     50 H50        -2.5035    2.4162   57.9446 H       1  ZINC000583220082    0.0900
     51 H51         1.0047    2.6392   63.0693 H       1  ZINC000583220082    0.1400
     52 H52         2.1549    0.7798   64.1989 H       1  ZINC000583220082    0.1300
@<TRIPOS>BOND
     1     1     2    1
     2     1    30    1
     3     1    31    1
     4     1    32    1
     5     2     3    1
     6     2     4   am
     7     3    33    1
     8     3    34    1
     9     3    35    1
    10     4     5    2
    11     4     6    1
    12     6     7    1
    13     6    36    1
    14     6    37    1
    15     7    29   ar
    16     7     8   ar
    17     8     9   ar
    18     8    38    1
    19     9    10   ar
    20     9    39    1
    21    10    11    1
    22    10    28   ar
    23    11    12   am
    24    11    40    1
    25    12    13    2
    26    12    14    1
    27    14    15    2
    28    14    16   am
    29    16    27    1
    30    16    17    1
    31    17    18    1
    32    17    41    1
    33    17    42    1
    34    18    19    1
    35    18    43    1
    36    18    44    1
    37    19    20    1
    38    19    26    1
    39    20    25    1
    40    20    21    2
    41    21    22    1
    42    22    23    1
    43    22    24    2
    44    23    45    1
    45    23    46    1
    46    24    25    1
    47    26    27    1
    48    26    47    1
    49    26    48    1
    50    27    49    1
    51    27    50    1
    52    28    29   ar
    53    28    51    1
    54    29    52    1
@<TRIPOS>SUBSTRUCTURE
     1 ZINC000583220082        1 TEMP              0 ****  ****    0 ROOT


##########                                Name:    ZINC000746432885
##########                DOCK_Rotatable_Bonds:                  11
##########                         Heavy_Atoms:                  31
##########                    Molecular_Weight:              419.44
##########                DOCK_Rotatable_Bonds:                  11
##########                       Formal_Charge:           0.0199995
##########                     HBond_Acceptors:                   9
##########                        HBond_Donors:                   2
##########                         Heavy_Atoms:                  31
##########                          Grid_Score:          -33.252392
##########                     Grid_vdw_energy:          -31.301718
##########                      Grid_es_energy:           -1.950675
##########           Internal_energy_repulsive:           16.777727

@<TRIPOS>MOLECULE
ZINC000746432885
 52 54 1 0 0
SMALL
USER_CHARGES


@<TRIPOS>ATOM
      1 C1         -8.8589    4.3362   50.6583 C.3     1  ZINC000746432885    0.0300
      2 O2         -7.5910    4.8426   51.0804 O.3     1  ZINC000746432885   -0.3200
      3 C3         -6.5822    3.9425   51.2189 C.ar    1  ZINC000746432885    0.1300
      4 C4         -6.8620    2.5840   51.2454 C.ar    1  ZINC000746432885   -0.2000
      5 C5         -5.8348    1.6711   51.3863 C.ar    1  ZINC000746432885   -0.0800
      6 C6         -4.5289    2.1103   51.5014 C.ar    1  ZINC000746432885   -0.1400
      7 C7         -4.2475    3.4638   51.4752 C.ar    1  ZINC000746432885   -0.0600
      8 C8         -2.8229    3.9392   51.6003 C.3     1  ZINC000746432885    0.2300
      9 N9         -2.2898    3.5457   52.9070 N.am    1  ZINC000746432885   -0.6900
     10 C10        -2.0165    4.4851   53.8340 C.2     1  ZINC000746432885    0.5200
     11 O11        -2.2135    5.6569   53.5867 O.2     1  ZINC000746432885   -0.5100
     12 C12        -1.4715    4.0842   55.1651 C.2     1  ZINC000746432885    0.5100
     13 O13        -1.6985    4.7653   56.1441 O.2     1  ZINC000746432885   -0.5100
     14 N14        -0.7275    2.9663   55.2797 N.am    1  ZINC000746432885   -0.6100
     15 C15        -0.2161    2.5882   56.5323 C.2     1  ZINC000746432885    0.0000
     16 C16        -0.9319    2.4361   57.6768 C.2     1  ZINC000746432885    0.0400
     17 N17        -0.0717    2.0657   58.6522 N.pl3   1  ZINC000746432885   -0.3800
     18 C18        -0.4193    1.7935   60.0490 C.3     1  ZINC000746432885    0.2500
     19 C19        -0.1655    0.3752   60.3505 C.1     1  ZINC000746432885    0.1900
     20 N20         0.0302   -0.7193   60.5830 N.1     1  ZINC000746432885   -0.3900
     21 N21         1.2099    1.9876   58.0926 N.2     1  ZINC000746432885   -0.2800
     22 C22         1.1249    2.2941   56.8236 C.2     1  ZINC000746432885    0.0700
     23 C23        -1.9885    3.3182   50.5097 C.ar    1  ZINC000746432885   -0.0500
     24 C24        -2.3803    3.4349   49.1890 C.ar    1  ZINC000746432885   -0.1500
     25 C25        -1.6167    2.8667   48.1861 C.ar    1  ZINC000746432885   -0.0700
     26 C26        -0.4600    2.1806   48.5017 C.ar    1  ZINC000746432885   -0.2000
     27 C27        -0.0647    2.0620   49.8261 C.ar    1  ZINC000746432885    0.1300
     28 O28         1.0728    1.3875   50.1392 O.3     1  ZINC000746432885   -0.3200
     29 C29         2.3121    2.0141   49.8020 C.3     1  ZINC000746432885    0.0300
     30 C30        -0.8298    2.6376   50.8301 C.ar    1  ZINC000746432885   -0.1300
     31 C31        -5.2704    4.3805   51.3283 C.ar    1  ZINC000746432885   -0.1300
     32 H32        -9.2170    3.6041   51.3821 H       1  ZINC000746432885    0.0600
     33 H33        -9.5728    5.1569   50.5881 H       1  ZINC000746432885    0.1000
     34 H34        -8.7540    3.8615   49.6827 H       1  ZINC000746432885    0.0600
     35 H35        -7.8820    2.2404   51.1563 H       1  ZINC000746432885    0.1300
     36 H36        -6.0521    0.6133   51.4070 H       1  ZINC000746432885    0.1300
     37 H37        -3.7273    1.3952   51.6122 H       1  ZINC000746432885    0.1200
     38 H38        -2.7926    5.0248   51.5075 H       1  ZINC000746432885    0.1200
     39 H39        -2.1334    2.6090   53.1050 H       1  ZINC000746432885    0.4200
     40 H40        -0.5451    2.4227   54.4973 H       1  ZINC000746432885    0.4200
     41 H41        -1.9960    2.5846   57.7877 H       1  ZINC000746432885    0.1900
     42 H42         0.1887    2.4184   60.7032 H       1  ZINC000746432885    0.1300
     43 H43        -1.4739    2.0163   60.2111 H       1  ZINC000746432885    0.1500
     44 H44         1.9461    2.3225   56.1228 H       1  ZINC000746432885    0.2100
     45 H45        -3.2845    3.9706   48.9402 H       1  ZINC000746432885    0.1200
     46 H46        -1.9251    2.9590   47.1551 H       1  ZINC000746432885    0.1300
     47 H47         0.1359    1.7366   47.7179 H       1  ZINC000746432885    0.1300
     48 H48         3.1386    1.3714   50.1055 H       1  ZINC000746432885    0.1000
     49 H49         2.3554    2.1775   48.7253 H       1  ZINC000746432885    0.0600
     50 H50         2.3876    2.9712   50.3181 H       1  ZINC000746432885    0.0600
     51 H51        -0.5242    2.5467   51.8620 H       1  ZINC000746432885    0.1400
     52 H52        -5.0502    5.4376   51.3079 H       1  ZINC000746432885    0.1300
@<TRIPOS>BOND
     1     1     2    1
     2     1    32    1
     3     1    33    1
     4     1    34    1
     5     2     3    1
     6     3    31   ar
     7     3     4   ar
     8     4     5   ar
     9     4    35    1
    10     5     6   ar
    11     5    36    1
    12     6     7   ar
    13     6    37    1
    14     7     8    1
    15     7    31   ar
    16     8     9    1
    17     8    23    1
    18     8    38    1
    19     9    10   am
    20     9    39    1
    21    10    11    2
    22    10    12    1
    23    12    13    2
    24    12    14   am
    25    14    15    1
    26    14    40    1
    27    15    22    1
    28    15    16    2
    29    16    17    1
    30    16    41    1
    31    17    18    1
    32    17    21    1
    33    18    19    1
    34    18    42    1
    35    18    43    1
    36    19    20    3
    37    21    22    2
    38    22    44    1
    39    23    30   ar
    40    23    24   ar
    41    24    25   ar
    42    24    45    1
    43    25    26   ar
    44    25    46    1
    45    26    27   ar
    46    26    47    1
    47    27    28    1
    48    27    30   ar
    49    28    29    1
    50    29    48    1
    51    29    49    1
    52    29    50    1
    53    30    51    1
    54    31    52    1
@<TRIPOS>SUBSTRUCTURE
     1 ZINC000746432885        1 TEMP              0 ****  ****    0 ROOT


##########                                Name:    ZINC000114394234
##########                DOCK_Rotatable_Bonds:                   9
##########                         Heavy_Atoms:                  27
##########                    Molecular_Weight:             365.392
##########                DOCK_Rotatable_Bonds:                   9
##########                       Formal_Charge:           0.0300002
##########                     HBond_Acceptors:                   8
##########                        HBond_Donors:                   3
##########                         Heavy_Atoms:                  27
##########                          Grid_Score:          -33.229214
##########                     Grid_vdw_energy:          -29.689079
##########                      Grid_es_energy:           -3.540135
##########           Internal_energy_repulsive:           11.213293

@<TRIPOS>MOLECULE
ZINC000114394234
 46 48 1 0 0
SMALL
USER_CHARGES


@<TRIPOS>ATOM
      1 C1         -7.2570    0.1338   52.3692 C.3     1  ZINC000114394234   -0.1600
      2 C2         -7.4649    1.6419   52.5212 C.3     1  ZINC000114394234    0.1300
      3 H3         -8.4451    1.9148   52.1300 H       1  ZINC000114394234    0.1200
      4 N4         -7.3862    2.0054   53.9383 N.am    1  ZINC000114394234   -0.7100
      5 C5         -8.5154    2.1716   54.6551 C.2     1  ZINC000114394234    0.5200
      6 O6         -9.5967    2.0219   54.1266 O.2     1  ZINC000114394234   -0.5100
      7 C7         -8.4344    2.5437   56.1130 C.3     1  ZINC000114394234    0.0400
      8 O8         -8.8349    1.4288   56.9122 O.3     1  ZINC000114394234   -0.2900
      9 C9         -8.8586    1.6115   58.2587 C.ar    1  ZINC000114394234    0.1300
     10 C10        -9.0021    0.5219   59.1053 C.ar    1  ZINC000114394234   -0.2100
     11 C11        -9.0254    0.7103   60.4737 C.ar    1  ZINC000114394234   -0.0800
     12 C12        -8.9062    1.9834   60.9996 C.ar    1  ZINC000114394234   -0.1600
     13 C13        -8.7635    3.0711   60.1579 C.ar    1  ZINC000114394234   -0.0800
     14 C14        -8.7335    2.8873   58.7890 C.ar    1  ZINC000114394234   -0.1500
     15 C15        -6.3958    2.3763   51.7540 C.2     1  ZINC000114394234    0.5100
     16 O16        -6.6416    2.8334   50.6577 O.2     1  ZINC000114394234   -0.5100
     17 N17        -5.1665    2.5251   52.2859 N.am    1  ZINC000114394234   -0.6700
     18 C18        -4.1737    3.2070   51.5735 C.ar    1  ZINC000114394234    0.1300
     19 C19        -3.6925    4.4228   52.0430 C.ar    1  ZINC000114394234   -0.1200
     20 C20        -2.7119    5.0992   51.3420 C.ar    1  ZINC000114394234   -0.1000
     21 C21        -2.2056    4.5710   50.1715 C.ar    1  ZINC000114394234   -0.0900
     22 C22        -2.6829    3.3520   49.6928 C.ar    1  ZINC000114394234    0.0000
     23 C23        -2.1400    2.7829   48.4342 C.2     1  ZINC000114394234    0.2700
     24 N24        -1.1483    3.2846   47.7313 N.2     1  ZINC000114394234   -0.3000
     25 N25        -0.9659    2.4359   46.6274 N.pl3   1  ZINC000114394234   -0.4800
     26 C26        -1.8814    1.4571   46.7422 C.2     1  ZINC000114394234    0.2700
     27 N27        -2.5754    1.6698   47.8289 N.2     1  ZINC000114394234   -0.5300
     28 C28        -3.6656    2.6667   50.4015 C.ar    1  ZINC000114394234   -0.0800
     29 H29        -6.2769   -0.1391   52.7603 H       1  ZINC000114394234    0.0700
     30 H30        -8.0304   -0.3974   52.9240 H       1  ZINC000114394234    0.0800
     31 H31        -7.3156   -0.1366   51.3149 H       1  ZINC000114394234    0.0800
     32 H32        -6.5214    2.1263   54.3605 H       1  ZINC000114394234    0.4100
     33 H33        -7.4095    2.8192   56.3614 H       1  ZINC000114394234    0.1000
     34 H34        -9.0954    3.3879   56.3099 H       1  ZINC000114394234    0.1000
     35 H35        -9.0960   -0.4727   58.6950 H       1  ZINC000114394234    0.1300
     36 H36        -9.1371   -0.1377   61.1332 H       1  ZINC000114394234    0.1300
     37 H37        -8.9249    2.1287   62.0696 H       1  ZINC000114394234    0.1300
     38 H38        -8.6710    4.0646   60.5711 H       1  ZINC000114394234    0.1300
     39 H39        -8.6220    3.7372   58.1320 H       1  ZINC000114394234    0.1300
     40 H40        -4.9699    2.1595   53.1627 H       1  ZINC000114394234    0.4200
     41 H41        -4.0858    4.8406   52.9579 H       1  ZINC000114394234    0.1300
     42 H42        -2.3410    6.0441   51.7110 H       1  ZINC000114394234    0.1400
     43 H43        -1.4398    5.1025   49.6262 H       1  ZINC000114394234    0.1400
     44 H44        -0.3089    2.5361   45.9209 H       1  ZINC000114394234    0.4400
     45 H45        -2.0167    0.6338   46.0563 H       1  ZINC000114394234    0.2300
     46 H46        -4.0385    1.7219   50.0346 H       1  ZINC000114394234    0.1500
@<TRIPOS>BOND
     1     1     2    1
     2     1    29    1
     3     1    30    1
     4     1    31    1
     5     2     3    1
     6     2     4    1
     7     2    15    1
     8     4     5   am
     9     4    32    1
    10     5     6    2
    11     5     7    1
    12     7     8    1
    13     7    33    1
    14     7    34    1
    15     8     9    1
    16     9    14   ar
    17     9    10   ar
    18    10    11   ar
    19    10    35    1
    20    11    12   ar
    21    11    36    1
    22    12    13   ar
    23    12    37    1
    24    13    14   ar
    25    13    38    1
    26    14    39    1
    27    15    16    2
    28    15    17   am
    29    17    18    1
    30    17    40    1
    31    18    28   ar
    32    18    19   ar
    33    19    20   ar
    34    19    41    1
    35    20    21   ar
    36    20    42    1
    37    21    22   ar
    38    21    43    1
    39    22    23    1
    40    22    28   ar
    41    23    27    1
    42    23    24    2
    43    24    25    1
    44    25    26    1
    45    25    44    1
    46    26    27    2
    47    26    45    1
    48    28    46    1
@<TRIPOS>SUBSTRUCTURE
     1 ZINC000114394234        1 TEMP              0 ****  ****    0 ROOT


##########                                Name:    ZINC000482910431
##########                DOCK_Rotatable_Bonds:                   7
##########                         Heavy_Atoms:                  29
##########                    Molecular_Weight:             414.867
##########                DOCK_Rotatable_Bonds:                   7
##########                       Formal_Charge:          -0.0300001
##########                     HBond_Acceptors:                   8
##########                        HBond_Donors:                   2
##########                         Heavy_Atoms:                  29
##########                          Grid_Score:          -33.226460
##########                     Grid_vdw_energy:          -30.004951
##########                      Grid_es_energy:           -3.221508
##########           Internal_energy_repulsive:           14.463859

@<TRIPOS>MOLECULE
ZINC000482910431
 49 51 1 0 0
SMALL
USER_CHARGES


@<TRIPOS>ATOM
      1 C1        -12.1446   -1.7519   54.0381 C.3     1  ZINC000482910431   -0.1500
      2 C2        -12.1037   -0.4655   53.2108 C.3     1  ZINC000482910431    0.0800
      3 C3        -12.5470   -0.7666   51.7776 C.3     1  ZINC000482910431   -0.1400
      4 C4        -13.0103    0.5297   53.8060 C.1     1  ZINC000482910431    0.2100
      5 N5        -13.7100    1.2978   54.2653 N.1     1  ZINC000482910431   -0.4300
      6 C6        -10.6987    0.0791   53.1981 C.ar    1  ZINC000482910431   -0.1000
      7 C7        -10.3800    1.1837   53.9664 C.ar    1  ZINC000482910431   -0.0900
      8 C8         -9.0931    1.6851   53.9573 C.ar    1  ZINC000482910431   -0.1200
      9 C9         -8.1187    1.0787   53.1755 C.ar    1  ZINC000482910431    0.1700
     10 N10        -6.8137    1.5840   53.1644 N.am    1  ZINC000482910431   -0.6800
     11 C11        -6.3920    2.3384   52.1303 C.2     1  ZINC000482910431    0.7100
     12 O12        -7.1453    2.5799   51.2070 O.2     1  ZINC000482910431   -0.5500
     13 N13        -5.1351    2.8250   52.1196 N.am    1  ZINC000482910431   -0.7300
     14 C14        -4.6761    3.6436   50.9947 C.3     1  ZINC000482910431    0.1400
     15 H15        -5.5267    4.0576   50.4533 H       1  ZINC000482910431    0.1400
     16 C16        -3.7483    4.7760   51.4926 C.3     1  ZINC000482910431   -0.1400
     17 C17        -2.7121    4.8594   50.3499 C.3     1  ZINC000482910431    0.0900
     18 N18        -2.7073    3.5301   49.7278 N.am    1  ZINC000482910431   -0.5600
     19 C19        -1.6935    3.0549   48.8880 C.ar    1  ZINC000482910431    0.2000
     20 C20        -2.0155    2.4815   47.6651 C.ar    1  ZINC000482910431   -0.1600
     21 C21        -1.0139    2.0129   46.8370 C.ar    1  ZINC000482910431   -0.0500
     22 C22         0.3099    2.1140   47.2244 C.ar    1  ZINC000482910431   -0.1000
     23 Cl23        1.5659    1.5239   46.1811 Cl      1  ZINC000482910431   -0.0500
     24 C24         0.6354    2.6862   48.4443 C.ar    1  ZINC000482910431    0.1400
     25 F25         1.9292    2.7845   48.8206 F       1  ZINC000482910431   -0.1200
     26 C26        -0.3639    3.1614   49.2740 C.ar    1  ZINC000482910431   -0.1900
     27 C27        -3.8044    2.8267   50.0665 C.2     1  ZINC000482910431    0.5000
     28 O28        -4.0537    1.7024   49.6858 O.2     1  ZINC000482910431   -0.4800
     29 C29        -8.4420   -0.0305   52.4049 C.ar    1  ZINC000482910431   -0.1400
     30 C30        -9.7294   -0.5302   52.4225 C.ar    1  ZINC000482910431   -0.0900
     31 H31       -11.4732   -2.4889   53.5974 H       1  ZINC000482910431    0.0800
     32 H32       -11.8287   -1.5374   55.0591 H       1  ZINC000482910431    0.0700
     33 H33       -13.1609   -2.1459   54.0473 H       1  ZINC000482910431    0.0700
     34 H34       -13.5633   -1.1606   51.7869 H       1  ZINC000482910431    0.0700
     35 H35       -12.5178    0.1498   51.1882 H       1  ZINC000482910431    0.0700
     36 H36       -11.8756   -1.5036   51.3369 H       1  ZINC000482910431    0.0800
     37 H37       -11.1382    1.6552   54.5740 H       1  ZINC000482910431    0.1400
     38 H38        -8.8449    2.5481   54.5574 H       1  ZINC000482910431    0.1400
     39 H39        -6.2128    1.3911   53.9010 H       1  ZINC000482910431    0.4100
     40 H40        -4.5346    2.6332   52.8568 H       1  ZINC000482910431    0.4000
     41 H41        -4.2956    5.7133   51.5920 H       1  ZINC000482910431    0.1100
     42 H42        -3.2703    4.5033   52.4335 H       1  ZINC000482910431    0.1000
     43 H43        -3.0117    5.6147   49.6234 H       1  ZINC000482910431    0.0900
     44 H44        -1.7256    5.0915   50.7514 H       1  ZINC000482910431    0.1000
     45 H45        -3.0489    2.4016   47.3614 H       1  ZINC000482910431    0.1700
     46 H46        -1.2650    1.5665   45.8860 H       1  ZINC000482910431    0.1500
     47 H47        -0.1110    3.6077   50.2243 H       1  ZINC000482910431    0.1500
     48 H48        -7.6864   -0.5043   51.7958 H       1  ZINC000482910431    0.1300
     49 H49        -9.9813   -1.3930   51.8238 H       1  ZINC000482910431    0.1300
@<TRIPOS>BOND
     1     1     2    1
     2     1    31    1
     3     1    32    1
     4     1    33    1
     5     2     3    1
     6     2     4    1
     7     2     6    1
     8     3    34    1
     9     3    35    1
    10     3    36    1
    11     4     5    3
    12     6    30   ar
    13     6     7   ar
    14     7     8   ar
    15     7    37    1
    16     8     9   ar
    17     8    38    1
    18     9    10    1
    19     9    29   ar
    20    10    11   am
    21    10    39    1
    22    11    12    2
    23    11    13   am
    24    13    14    1
    25    13    40    1
    26    14    15    1
    27    14    27    1
    28    14    16    1
    29    16    17    1
    30    16    41    1
    31    16    42    1
    32    17    18    1
    33    17    43    1
    34    17    44    1
    35    18    19    1
    36    18    27   am
    37    19    26   ar
    38    19    20   ar
    39    20    21   ar
    40    20    45    1
    41    21    22   ar
    42    21    46    1
    43    22    23    1
    44    22    24   ar
    45    24    25    1
    46    24    26   ar
    47    26    47    1
    48    27    28    2
    49    29    30   ar
    50    29    48    1
    51    30    49    1
@<TRIPOS>SUBSTRUCTURE
     1 ZINC000482910431        1 TEMP              0 ****  ****    0 ROOT


##########                                Name:    ZINC000558213406
##########                DOCK_Rotatable_Bonds:                   8
##########                         Heavy_Atoms:                  30
##########                    Molecular_Weight:               408.5
##########                DOCK_Rotatable_Bonds:                   8
##########                       Formal_Charge:          -0.0299987
##########                     HBond_Acceptors:                   7
##########                        HBond_Donors:                   2
##########                         Heavy_Atoms:                  30
##########                          Grid_Score:          -33.207054
##########                     Grid_vdw_energy:          -31.780657
##########                      Grid_es_energy:           -1.426398
##########           Internal_energy_repulsive:           12.274726

@<TRIPOS>MOLECULE
ZINC000558213406
 58 61 1 0 0
SMALL
USER_CHARGES


@<TRIPOS>ATOM
      1 O1         -3.6525    1.5633   49.6573 O.2     1  ZINC000558213406   -0.5700
      2 C2         -3.6648    2.7420   49.9555 C.2     1  ZINC000558213406    0.7100
      3 N3         -2.5410    3.4773   49.8432 N.am    1  ZINC000558213406   -0.6800
      4 C4         -1.3566    2.8820   49.3884 C.ar    1  ZINC000558213406    0.1700
      5 C5         -1.1172    2.7647   48.0257 C.ar    1  ZINC000558213406   -0.1300
      6 C6          0.0501    2.1785   47.5781 C.ar    1  ZINC000558213406   -0.1100
      7 C7          0.9835    1.7063   48.4897 C.ar    1  ZINC000558213406    0.0600
      8 O8          2.1325    1.1288   48.0484 O.3     1  ZINC000558213406   -0.2500
      9 C9          2.6629    0.1184   48.7862 C.ar    1  ZINC000558213406    0.0700
     10 C10         3.8122    0.3250   49.5426 C.ar    1  ZINC000558213406   -0.1500
     11 C11         4.3156   -0.7357   50.2785 C.ar    1  ZINC000558213406   -0.1300
     12 C12         3.6649   -1.9545   50.2377 C.ar    1  ZINC000558213406    0.0600
     13 N13         2.5772   -2.1174   49.5099 N.ar    1  ZINC000558213406   -0.4500
     14 C14         2.0627   -1.1328   48.8006 C.ar    1  ZINC000558213406    0.0800
     15 C15         0.7449    1.8238   49.8514 C.ar    1  ZINC000558213406   -0.1000
     16 C16        -0.4197    2.4145   50.3001 C.ar    1  ZINC000558213406   -0.1100
     17 N17        -4.8038    3.3146   50.3929 N.am    1  ZINC000558213406   -0.7300
     18 C18        -6.0256    2.5153   50.5149 C.3     1  ZINC000558213406    0.1500
     19 H19        -6.3163    2.1076   49.5467 H       1  ZINC000558213406    0.1100
     20 C20        -5.8366    1.3792   51.5547 C.3     1  ZINC000558213406   -0.1400
     21 C21        -7.2939    1.1407   52.0229 C.3     1  ZINC000558213406    0.1000
     22 N22        -7.9063    2.4816   52.0486 N.am    1  ZINC000558213406   -0.6200
     23 C23        -8.9662    2.8468   52.7966 C.2     1  ZINC000558213406    0.5400
     24 O24        -9.3875    3.9825   52.7377 O.2     1  ZINC000558213406   -0.5300
     25 C25        -9.6279    1.8439   53.7063 C.3     1  ZINC000558213406   -0.1000
     26 C26       -10.1930    2.5630   54.9328 C.3     1  ZINC000558213406   -0.1100
     27 C27       -10.8647    1.5448   55.8564 C.3     1  ZINC000558213406   -0.1200
     28 C28       -12.0009    0.8471   55.1058 C.3     1  ZINC000558213406   -0.1200
     29 C29       -11.4357    0.1281   53.8792 C.3     1  ZINC000558213406   -0.1200
     30 C30       -10.7639    1.1463   52.9557 C.3     1  ZINC000558213406   -0.1100
     31 C31        -7.1699    3.3560   51.1193 C.3     1  ZINC000558213406    0.1000
     32 H32        -2.5518    4.4186   50.0772 H       1  ZINC000558213406    0.4100
     33 H33        -1.8440    3.1315   47.3162 H       1  ZINC000558213406    0.1300
     34 H34         0.2364    2.0872   46.5182 H       1  ZINC000558213406    0.1400
     35 H35         4.3002    1.2883   49.5555 H       1  ZINC000558213406    0.1400
     36 H36         5.2061   -0.6116   50.8769 H       1  ZINC000558213406    0.1400
     37 H37         4.0527   -2.7848   50.8093 H       1  ZINC000558213406    0.1600
     38 H38         1.1704   -1.3042   48.2168 H       1  ZINC000558213406    0.1700
     39 H39         1.4719    1.4561   50.5605 H       1  ZINC000558213406    0.1400
     40 H40        -0.6051    2.5062   51.3601 H       1  ZINC000558213406    0.1500
     41 H41        -4.8147    4.2559   50.6268 H       1  ZINC000558213406    0.4000
     42 H42        -5.4256    0.4851   51.0860 H       1  ZINC000558213406    0.0900
     43 H43        -5.2090    1.7080   52.3829 H       1  ZINC000558213406    0.0800
     44 H44        -7.8188    0.4975   51.3167 H       1  ZINC000558213406    0.0700
     45 H45        -7.3047    0.6996   53.0195 H       1  ZINC000558213406    0.0800
     46 H46        -8.8944    1.1033   54.0251 H       1  ZINC000558213406    0.0900
     47 H47        -9.3835    3.0600   55.4677 H       1  ZINC000558213406    0.0600
     48 H48       -10.9263    3.3036   54.6140 H       1  ZINC000558213406    0.0700
     49 H49       -10.1313    0.8042   56.1753 H       1  ZINC000558213406    0.0600
     50 H50       -11.2673    2.0570   56.7302 H       1  ZINC000558213406    0.0700
     51 H51       -12.4794    0.1218   55.7638 H       1  ZINC000558213406    0.0600
     52 H52       -12.7342    1.5878   54.7869 H       1  ZINC000558213406    0.0600
     53 H53       -10.7023   -0.6125   54.1981 H       1  ZINC000558213406    0.0600
     54 H54       -12.2451   -0.3689   53.3445 H       1  ZINC000558213406    0.0700
     55 H55       -11.4974    1.8869   52.6367 H       1  ZINC000558213406    0.0800
     56 H56       -10.3614    0.6341   52.0818 H       1  ZINC000558213406    0.0600
     57 H57        -6.7560    4.2068   51.6603 H       1  ZINC000558213406    0.0800
     58 H58        -7.8370    3.7043   50.3307 H       1  ZINC000558213406    0.0800
@<TRIPOS>BOND
     1     1     2    2
     2     2     3   am
     3     2    17   am
     4     3     4    1
     5     3    32    1
     6     4    16   ar
     7     4     5   ar
     8     5     6   ar
     9     5    33    1
    10     6     7   ar
    11     6    34    1
    12     7     8    1
    13     7    15   ar
    14     8     9    1
    15     9    14   ar
    16     9    10   ar
    17    10    11   ar
    18    10    35    1
    19    11    12   ar
    20    11    36    1
    21    12    13   ar
    22    12    37    1
    23    13    14   ar
    24    14    38    1
    25    15    16   ar
    26    15    39    1
    27    16    40    1
    28    17    18    1
    29    17    41    1
    30    18    19    1
    31    18    31    1
    32    18    20    1
    33    20    21    1
    34    20    42    1
    35    20    43    1
    36    21    22    1
    37    21    44    1
    38    21    45    1
    39    22    23   am
    40    22    31    1
    41    23    24    2
    42    23    25    1
    43    25    30    1
    44    25    26    1
    45    25    46    1
    46    26    27    1
    47    26    47    1
    48    26    48    1
    49    27    28    1
    50    27    49    1
    51    27    50    1
    52    28    29    1
    53    28    51    1
    54    28    52    1
    55    29    30    1
    56    29    53    1
    57    29    54    1
    58    30    55    1
    59    30    56    1
    60    31    57    1
    61    31    58    1
@<TRIPOS>SUBSTRUCTURE
     1 ZINC000558213406        1 TEMP              0 ****  ****    0 ROOT


##########                                Name:    ZINC001500042809
##########                DOCK_Rotatable_Bonds:                   9
##########                         Heavy_Atoms:                  24
##########                    Molecular_Weight:              346.45
##########                DOCK_Rotatable_Bonds:                   9
##########                       Formal_Charge:           0.0200001
##########                     HBond_Acceptors:                   6
##########                        HBond_Donors:                   2
##########                         Heavy_Atoms:                  24
##########                          Grid_Score:          -33.201550
##########                     Grid_vdw_energy:          -29.752878
##########                      Grid_es_energy:           -3.448670
##########           Internal_energy_repulsive:           22.815491

@<TRIPOS>MOLECULE
ZINC001500042809
 46 47 1 0 0
SMALL
USER_CHARGES


@<TRIPOS>ATOM
      1 C1         -1.9776    2.3954   47.6023 C.3     1  ZINC001500042809    0.0200
      2 O2         -3.1975    2.2497   48.3322 O.3     1  ZINC001500042809   -0.3100
      3 C3         -3.1727    2.5854   49.6469 C.ar    1  ZINC001500042809    0.1600
      4 C4         -1.9784    2.9784   50.2395 C.ar    1  ZINC001500042809   -0.1600
      5 C5         -1.9490    3.3193   51.5734 C.ar    1  ZINC001500042809   -0.0200
      6 C6         -3.1221    3.2700   52.3311 C.ar    1  ZINC001500042809   -0.1800
      7 C7         -3.0950    3.6346   53.7612 C.2     1  ZINC001500042809    0.5600
      8 O8         -4.0281    4.2400   54.2522 O.2     1  ZINC001500042809   -0.5300
      9 N9         -2.0357    3.2964   54.5228 N.am    1  ZINC001500042809   -0.7300
     10 C10        -2.0095    3.6567   55.9427 C.3     1  ZINC001500042809    0.1300
     11 C11        -1.1075    2.6801   56.7000 C.3     1  ZINC001500042809   -0.1200
     12 H12        -1.4705    1.6627   56.5543 H       1  ZINC001500042809    0.0900
     13 C13         0.3235    2.7919   56.1703 C.3     1  ZINC001500042809   -0.1500
     14 C14        -1.1272    3.0199   58.1917 C.3     1  ZINC001500042809    0.1300
     15 N15        -0.6737    1.8598   58.9629 N.am    1  ZINC001500042809   -0.7300
     16 C16         0.4544    1.9371   59.6961 C.2     1  ZINC001500042809    0.5900
     17 O17         1.0957    2.9712   59.7188 O.2     1  ZINC001500042809   -0.5200
     18 C18         0.9091    0.7757   60.4663 C.2     1  ZINC001500042809   -0.2800
     19 C19         2.1021    0.6795   61.1256 C.2     1  ZINC001500042809   -0.0100
     20 C20         3.1286    1.7826   61.1463 C.3     1  ZINC001500042809   -0.1100
     21 C21         2.2725   -0.5237   61.7685 C.2     1  ZINC001500042809   -0.1500
     22 C22         1.2556   -1.3842   61.6414 C.2     1  ZINC001500042809   -0.2200
     23 S23         0.0035   -0.7138   60.6960 S.3     1  ZINC001500042809    0.1900
     24 C24        -4.3195    2.8693   51.7329 C.ar    1  ZINC001500042809   -0.0400
     25 C25        -4.3415    2.5346   50.3974 C.ar    1  ZINC001500042809   -0.2200
     26 H26        -1.6583    3.4371   47.6327 H       1  ZINC001500042809    0.0600
     27 H27        -1.2087    1.7664   48.0507 H       1  ZINC001500042809    0.0600
     28 H28        -2.1356    2.0939   46.5669 H       1  ZINC001500042809    0.1000
     29 H29        -1.0722    3.0163   49.6532 H       1  ZINC001500042809    0.1400
     30 H30        -1.0206    3.6240   52.0333 H       1  ZINC001500042809    0.1400
     31 H31        -1.2907    2.8144   54.1309 H       1  ZINC001500042809    0.4000
     32 H32        -3.0199    3.6076   56.3487 H       1  ZINC001500042809    0.0800
     33 H33        -1.6222    4.6695   56.0534 H       1  ZINC001500042809    0.0800
     34 H34         0.3374    2.5499   55.1076 H       1  ZINC001500042809    0.0600
     35 H35         0.6864    3.8094   56.3160 H       1  ZINC001500042809    0.0600
     36 H36         0.9661    2.0962   56.7099 H       1  ZINC001500042809    0.0600
     37 H37        -0.4638    3.8638   58.3809 H       1  ZINC001500042809    0.0800
     38 H38        -2.1420    3.2813   58.4915 H       1  ZINC001500042809    0.0800
     39 H39        -1.1855    1.0359   58.9458 H       1  ZINC001500042809    0.4000
     40 H40         2.9404    2.4381   61.9966 H       1  ZINC001500042809    0.0800
     41 H41         4.1252    1.3500   61.2347 H       1  ZINC001500042809    0.0700
     42 H42         3.0627    2.3576   60.2227 H       1  ZINC001500042809    0.0900
     43 H43         3.1621   -0.7573   62.3344 H       1  ZINC001500042809    0.1500
     44 H44         1.2294   -2.3699   62.0820 H       1  ZINC001500042809    0.1700
     45 H45        -5.2274    2.8257   52.3164 H       1  ZINC001500042809    0.1300
     46 H46        -5.2673    2.2280   49.9335 H       1  ZINC001500042809    0.1400
@<TRIPOS>BOND
     1     1     2    1
     2     1    26    1
     3     1    27    1
     4     1    28    1
     5     2     3    1
     6     3    25   ar
     7     3     4   ar
     8     4     5   ar
     9     4    29    1
    10     5     6   ar
    11     5    30    1
    12     6     7    1
    13     6    24   ar
    14     7     8    2
    15     7     9   am
    16     9    10    1
    17     9    31    1
    18    10    11    1
    19    10    32    1
    20    10    33    1
    21    11    12    1
    22    11    13    1
    23    11    14    1
    24    13    34    1
    25    13    35    1
    26    13    36    1
    27    14    15    1
    28    14    37    1
    29    14    38    1
    30    15    16   am
    31    15    39    1
    32    16    17    2
    33    16    18    1
    34    18    23    1
    35    18    19    2
    36    19    20    1
    37    19    21    1
    38    20    40    1
    39    20    41    1
    40    20    42    1
    41    21    22    2
    42    21    43    1
    43    22    23    1
    44    22    44    1
    45    24    25   ar
    46    24    45    1
    47    25    46    1
@<TRIPOS>SUBSTRUCTURE
     1 ZINC001500042809        1 TEMP              0 ****  ****    0 ROOT


##########                                Name:    ZINC000420486261
##########                DOCK_Rotatable_Bonds:                   7
##########                         Heavy_Atoms:                  26
##########                    Molecular_Weight:             353.378
##########                DOCK_Rotatable_Bonds:                   7
##########                       Formal_Charge:        -2.98023e-08
##########                     HBond_Acceptors:                   7
##########                        HBond_Donors:                   0
##########                         Heavy_Atoms:                  26
##########                          Grid_Score:          -33.184479
##########                     Grid_vdw_energy:          -32.455750
##########                      Grid_es_energy:           -0.728728
##########           Internal_energy_repulsive:            7.228535

@<TRIPOS>MOLECULE
ZINC000420486261
 45 47 1 0 0
SMALL
USER_CHARGES


@<TRIPOS>ATOM
      1 C1         -5.9996    1.3167   50.2967 C.3     1  ZINC000420486261    0.0400
      2 O2         -6.3795    2.4565   51.1121 O.3     1  ZINC000420486261   -0.3500
      3 C3         -5.5499    3.5174   51.1043 C.2     1  ZINC000420486261    0.5100
      4 O4         -6.0019    4.6422   51.1739 O.2     1  ZINC000420486261   -0.4900
      5 C5         -4.0866    3.3121   51.0109 C.ar    1  ZINC000420486261   -0.0700
      6 C6         -3.2660    3.4721   52.1324 C.ar    1  ZINC000420486261   -0.0900
      7 C7         -1.9026    3.2710   52.0058 C.ar    1  ZINC000420486261    0.1100
      8 N8         -1.3708    2.9336   50.8510 N.ar    1  ZINC000420486261   -0.4200
      9 C9         -2.1080    2.7700   49.7594 C.ar    1  ZINC000420486261    0.1900
     10 C10        -1.4567    2.3894   48.4861 C.2     1  ZINC000420486261    0.2200
     11 N11        -0.2446    2.7279   48.0920 N.2     1  ZINC000420486261   -0.4300
     12 C12        -0.0861    2.1561   46.8798 C.2     1  ZINC000420486261    0.2200
     13 C13         1.1183    2.2425   46.0183 C.ar    1  ZINC000420486261   -0.0600
     14 C14         1.3304    3.3661   45.2231 C.ar    1  ZINC000420486261   -0.0300
     15 C15         2.4526    3.4418   44.4232 C.ar    1  ZINC000420486261   -0.1600
     16 C16         3.3689    2.4049   44.4079 C.ar    1  ZINC000420486261   -0.0600
     17 C17         3.1684    1.2856   45.1928 C.ar    1  ZINC000420486261   -0.2200
     18 C18         2.0488    1.1987   46.0052 C.ar    1  ZINC000420486261    0.1700
     19 O19         1.8506    0.0992   46.7772 O.3     1  ZINC000420486261   -0.2900
     20 C20         2.2216    0.1976   48.1536 C.3     1  ZINC000420486261    0.0600
     21 C21         2.9966   -1.0563   48.5638 C.3     1  ZINC000420486261   -0.0900
     22 C22         4.4977   -0.7628   48.5270 C.3     1  ZINC000420486261   -0.1500
     23 C23         2.5916   -1.4652   49.9814 C.3     1  ZINC000420486261   -0.1500
     24 N24        -1.1913    1.5109   46.6051 N.2     1  ZINC000420486261   -0.3400
     25 O25        -1.9847    1.6291   47.5147 O.3     1  ZINC000420486261    0.1000
     26 C26        -3.4894    2.9475   49.8014 C.ar    1  ZINC000420486261   -0.0700
     27 H27        -6.7520    0.5340   50.3933 H       1  ZINC000420486261    0.1100
     28 H28        -5.9272    1.6243   49.2534 H       1  ZINC000420486261    0.0700
     29 H29        -5.0344    0.9363   50.6311 H       1  ZINC000420486261    0.0700
     30 H30        -3.6913    3.7496   53.0856 H       1  ZINC000420486261    0.1600
     31 H31        -1.2650    3.3935   52.8689 H       1  ZINC000420486261    0.1800
     32 H32         0.6174    4.1772   45.2321 H       1  ZINC000420486261    0.1400
     33 H33         2.6160    4.3133   43.8066 H       1  ZINC000420486261    0.1300
     34 H34         4.2445    2.4707   43.7792 H       1  ZINC000420486261    0.1300
     35 H35         3.8870    0.4795   45.1767 H       1  ZINC000420486261    0.1400
     36 H36         2.8495    1.0765   48.2988 H       1  ZINC000420486261    0.0600
     37 H37         1.3244    0.2868   48.7662 H       1  ZINC000420486261    0.0600
     38 H38         2.7677   -1.8672   47.8723 H       1  ZINC000420486261    0.0800
     39 H39         4.7265    0.0481   49.2184 H       1  ZINC000420486261    0.0600
     40 H40         5.0498   -1.6561   48.8191 H       1  ZINC000420486261    0.0700
     41 H41         4.7863   -0.4715   47.5170 H       1  ZINC000420486261    0.0600
     42 H42         2.8203   -0.6543   50.6729 H       1  ZINC000420486261    0.0500
     43 H43         1.5221   -1.6743   50.0077 H       1  ZINC000420486261    0.0600
     44 H44         3.1437   -2.3585   50.2737 H       1  ZINC000420486261    0.0600
     45 H45        -4.0874    2.8136   48.9121 H       1  ZINC000420486261    0.1600
@<TRIPOS>BOND
     1     1     2    1
     2     1    27    1
     3     1    28    1
     4     1    29    1
     5     2     3    1
     6     3     4    2
     7     3     5    1
     8     5    26   ar
     9     5     6   ar
    10     6     7   ar
    11     6    30    1
    12     7     8   ar
    13     7    31    1
    14     8     9   ar
    15     9    10    1
    16     9    26   ar
    17    10    25    1
    18    10    11    2
    19    11    12    1
    20    12    13    1
    21    12    24    2
    22    13    18   ar
    23    13    14   ar
    24    14    15   ar
    25    14    32    1
    26    15    16   ar
    27    15    33    1
    28    16    17   ar
    29    16    34    1
    30    17    18   ar
    31    17    35    1
    32    18    19    1
    33    19    20    1
    34    20    21    1
    35    20    36    1
    36    20    37    1
    37    21    22    1
    38    21    23    1
    39    21    38    1
    40    22    39    1
    41    22    40    1
    42    22    41    1
    43    23    42    1
    44    23    43    1
    45    23    44    1
    46    24    25    1
    47    26    45    1
@<TRIPOS>SUBSTRUCTURE
     1 ZINC000420486261        1 TEMP              0 ****  ****    0 ROOT


##########                                Name:    ZINC000859608860
##########                DOCK_Rotatable_Bonds:                   8
##########                         Heavy_Atoms:                  24
##########                    Molecular_Weight:             394.268
##########                DOCK_Rotatable_Bonds:                   8
##########                       Formal_Charge:          -0.0200003
##########                     HBond_Acceptors:                   6
##########                        HBond_Donors:                   1
##########                         Heavy_Atoms:                  24
##########                          Grid_Score:          -33.177845
##########                     Grid_vdw_energy:          -32.464859
##########                      Grid_es_energy:           -0.712985
##########           Internal_energy_repulsive:            8.703540

@<TRIPOS>MOLECULE
ZINC000859608860
 44 45 1 0 0
SMALL
USER_CHARGES


@<TRIPOS>ATOM
      1 C1          4.2149    1.2184   48.3434 C.3     1  ZINC000859608860   -0.1400
      2 C2          3.1962    0.1225   48.6629 C.3     1  ZINC000859608860   -0.0800
      3 C3          3.9109   -1.2272   48.7545 C.3     1  ZINC000859608860   -0.1400
      4 C4          2.5168    0.4315   49.9986 C.3     1  ZINC000859608860   -0.1400
      5 C5          2.1422    0.0673   47.5553 C.3     1  ZINC000859608860    0.1300
      6 N6          1.4658    1.3634   47.4599 N.am    1  ZINC000859608860   -0.7300
      7 C7          0.2198    1.4374   46.9517 C.2     1  ZINC000859608860    0.5100
      8 O8         -0.3410    0.4314   46.5719 O.2     1  ZINC000859608860   -0.5100
      9 C9         -0.4767    2.7703   46.8552 C.3     1  ZINC000859608860    0.0500
     10 O10        -1.1513    3.0559   48.1089 O.3     1  ZINC000859608860   -0.3100
     11 C11        -2.3412    2.4567   48.3140 C.2     1  ZINC000859608860    0.5600
     12 O12        -2.8573    1.8097   47.4237 O.2     1  ZINC000859608860   -0.5100
     13 C13        -3.0154    2.5858   49.6155 C.2     1  ZINC000859608860   -0.0400
     14 C14        -4.2968    2.2106   49.9007 C.2     1  ZINC000859608860    0.0500
     15 N15        -4.5098    2.5061   51.2118 N.pl3   1  ZINC000859608860   -0.4100
     16 C16        -5.6951    2.2872   51.9284 C.ar    1  ZINC000859608860    0.1400
     17 C17        -6.1446    3.2372   52.8355 C.ar    1  ZINC000859608860   -0.1200
     18 C18        -7.3126    3.0196   53.5398 C.ar    1  ZINC000859608860   -0.0600
     19 C19        -8.0345    1.8560   53.3420 C.ar    1  ZINC000859608860   -0.1000
     20 Br20       -9.6331    1.5612   54.3080 Br      1  ZINC000859608860   -0.0300
     21 C21        -7.5889    0.9079   52.4382 C.ar    1  ZINC000859608860   -0.0600
     22 C22        -6.4240    1.1229   51.7279 C.ar    1  ZINC000859608860   -0.1200
     23 C23        -3.3633    3.0526   51.7016 C.2     1  ZINC000859608860    0.2000
     24 N24        -2.4740    3.0942   50.7523 N.2     1  ZINC000859608860   -0.4300
     25 H25         4.6990    0.9983   47.3919 H       1  ZINC000859608860    0.0500
     26 H26         3.7058    2.1799   48.2782 H       1  ZINC000859608860    0.0600
     27 H27         4.9658    1.2577   49.1326 H       1  ZINC000859608860    0.0600
     28 H28         4.6618   -1.1879   49.5436 H       1  ZINC000859608860    0.0600
     29 H29         3.1852   -2.0079   48.9823 H       1  ZINC000859608860    0.0600
     30 H30         4.3949   -1.4473   47.8030 H       1  ZINC000859608860    0.0500
     31 H31         2.0076    1.3930   49.9333 H       1  ZINC000859608860    0.0600
     32 H32         1.7910   -0.3492   50.2262 H       1  ZINC000859608860    0.0600
     33 H33         3.2677    0.4708   50.7877 H       1  ZINC000859608860    0.0600
     34 H34         2.6251   -0.1612   46.6052 H       1  ZINC000859608860    0.0700
     35 H35         1.4116   -0.7076   47.7873 H       1  ZINC000859608860    0.0700
     36 H36         1.9147    2.1682   47.7626 H       1  ZINC000859608860    0.4000
     37 H37         0.2574    3.5500   46.6518 H       1  ZINC000859608860    0.1000
     38 H38        -1.2082    2.7404   46.0477 H       1  ZINC000859608860    0.1000
     39 H39        -5.0050    1.7656   49.2173 H       1  ZINC000859608860    0.2000
     40 H40        -5.5812    4.1455   52.9906 H       1  ZINC000859608860    0.1400
     41 H41        -7.6623    3.7582   54.2459 H       1  ZINC000859608860    0.1500
     42 H42        -8.1541    0.0003   52.2855 H       1  ZINC000859608860    0.1500
     43 H43        -6.0766    0.3825   51.0226 H       1  ZINC000859608860    0.1500
     44 H44        -3.2144    3.3931   52.7157 H       1  ZINC000859608860    0.2200
@<TRIPOS>BOND
     1     1     2    1
     2     1    25    1
     3     1    26    1
     4     1    27    1
     5     2     3    1
     6     2     4    1
     7     2     5    1
     8     3    28    1
     9     3    29    1
    10     3    30    1
    11     4    31    1
    12     4    32    1
    13     4    33    1
    14     5     6    1
    15     5    34    1
    16     5    35    1
    17     6     7   am
    18     6    36    1
    19     7     8    2
    20     7     9    1
    21     9    10    1
    22     9    37    1
    23     9    38    1
    24    10    11    1
    25    11    12    2
    26    11    13    1
    27    13    24    1
    28    13    14    2
    29    14    15    1
    30    14    39    1
    31    15    16    1
    32    15    23    1
    33    16    22   ar
    34    16    17   ar
    35    17    18   ar
    36    17    40    1
    37    18    19   ar
    38    18    41    1
    39    19    20    1
    40    19    21   ar
    41    21    22   ar
    42    21    42    1
    43    22    43    1
    44    23    24    2
    45    23    44    1
@<TRIPOS>SUBSTRUCTURE
     1 ZINC000859608860        1 TEMP              0 ****  ****    0 ROOT


##########                                Name:    ZINC000537799672
##########                DOCK_Rotatable_Bonds:                   9
##########                         Heavy_Atoms:                  29
##########                    Molecular_Weight:             401.478
##########                DOCK_Rotatable_Bonds:                   9
##########                       Formal_Charge:        -4.47035e-07
##########                     HBond_Acceptors:                   6
##########                        HBond_Donors:                   1
##########                         Heavy_Atoms:                  29
##########                          Grid_Score:          -33.174110
##########                     Grid_vdw_energy:          -32.014153
##########                      Grid_es_energy:           -1.159958
##########           Internal_energy_repulsive:           13.892464

@<TRIPOS>MOLECULE
ZINC000537799672
 57 59 1 0 0
SMALL
USER_CHARGES


@<TRIPOS>ATOM
      1 C1          1.9453   -1.8703   50.1182 C.3     1  ZINC000537799672    0.0300
      2 O2          1.6306   -0.4989   50.3680 O.3     1  ZINC000537799672   -0.3800
      3 C3          2.7224    0.3969   50.1507 C.3     1  ZINC000537799672    0.1200
      4 H4          3.5444    0.1364   50.8175 H       1  ZINC000537799672    0.0900
      5 C5          3.1830    0.2898   48.7198 C.ar    1  ZINC000537799672   -0.1300
      6 C6          2.3756    0.7531   47.6978 C.ar    1  ZINC000537799672   -0.0600
      7 C7          2.7969    0.6554   46.3852 C.ar    1  ZINC000537799672   -0.1500
      8 C8          4.0283    0.0935   46.0940 C.ar    1  ZINC000537799672    0.1000
      9 F9          4.4414   -0.0021   44.8112 F       1  ZINC000537799672   -0.1400
     10 C10         4.8364   -0.3698   47.1185 C.ar    1  ZINC000537799672   -0.1500
     11 C11         4.4151   -0.2667   48.4306 C.ar    1  ZINC000537799672   -0.0800
     12 C12         2.2702    1.8307   50.4348 C.3     1  ZINC000537799672    0.1600
     13 H13         2.5580    2.4740   49.6033 H       1  ZINC000537799672    0.1000
     14 C14         2.9346    2.3298   51.7195 C.3     1  ZINC000537799672   -0.1600
     15 N15         0.8142    1.8609   50.5946 N.am    1  ZINC000537799672   -0.7100
     16 C16         0.1121    2.9309   50.1719 C.2     1  ZINC000537799672    0.5600
     17 O17         0.6867    3.8701   49.6570 O.2     1  ZINC000537799672   -0.5400
     18 C18        -1.3571    2.9622   50.3346 C.ar    1  ZINC000537799672   -0.1400
     19 C19        -2.1871    2.5740   49.2820 C.ar    1  ZINC000537799672   -0.0800
     20 C20        -3.5574    2.6051   49.4405 C.ar    1  ZINC000537799672   -0.1300
     21 C21        -4.1089    3.0202   50.6394 C.ar    1  ZINC000537799672   -0.0900
     22 C22        -3.2915    3.4067   51.6870 C.ar    1  ZINC000537799672   -0.1100
     23 C23        -1.9199    3.3745   51.5437 C.ar    1  ZINC000537799672   -0.0300
     24 C24        -1.0312    3.7954   52.6857 C.3     1  ZINC000537799672    0.1100
     25 O25        -1.8269    4.0166   53.8519 O.3     1  ZINC000537799672   -0.3800
     26 C26        -1.3883    3.2895   55.0013 C.3     1  ZINC000537799672    0.0900
     27 C27         0.0250    3.7394   55.3837 C.3     1  ZINC000537799672   -0.1800
     28 C28         0.4553    3.0131   56.6607 C.3     1  ZINC000537799672    0.0600
     29 O29        -0.4838    3.2868   57.7025 O.3     1  ZINC000537799672   -0.3800
     30 C30        -1.8133    2.8452   57.4203 C.3     1  ZINC000537799672    0.0600
     31 C31        -2.3348    3.5648   56.1737 C.3     1  ZINC000537799672   -0.1500
     32 H32         2.8042   -2.1618   50.7226 H       1  ZINC000537799672    0.0500
     33 H33         1.0894   -2.4928   50.3787 H       1  ZINC000537799672    0.0900
     34 H34         2.1825   -2.0021   49.0625 H       1  ZINC000537799672    0.0400
     35 H35         1.4150    1.1913   47.9252 H       1  ZINC000537799672    0.1300
     36 H36         2.1655    1.0168   45.5869 H       1  ZINC000537799672    0.1400
     37 H37         5.7971   -0.8085   46.8923 H       1  ZINC000537799672    0.1400
     38 H38         5.0453   -0.6276   49.2299 H       1  ZINC000537799672    0.1300
     39 H39         4.0158    2.2191   51.6362 H       1  ZINC000537799672    0.0700
     40 H40         2.6877    3.3806   51.8717 H       1  ZINC000537799672    0.0600
     41 H41         2.5737    1.7455   52.5659 H       1  ZINC000537799672    0.0700
     42 H42         0.3556    1.1109   51.0044 H       1  ZINC000537799672    0.4000
     43 H43        -1.7579    2.2504   48.3453 H       1  ZINC000537799672    0.1300
     44 H44        -4.2009    2.3050   48.6267 H       1  ZINC000537799672    0.1300
     45 H45        -5.1821    3.0430   50.7582 H       1  ZINC000537799672    0.1300
     46 H46        -3.7282    3.7302   52.6202 H       1  ZINC000537799672    0.1400
     47 H47        -0.3019    3.0106   52.8869 H       1  ZINC000537799672    0.0800
     48 H48        -0.5107    4.7158   52.4209 H       1  ZINC000537799672    0.0800
     49 H49        -1.3849    2.2225   54.7782 H       1  ZINC000537799672    0.0600
     50 H50         0.7157    3.4966   54.5762 H       1  ZINC000537799672    0.0800
     51 H51         0.0302    4.8155   55.5574 H       1  ZINC000537799672    0.0800
     52 H52         0.4891    1.9396   56.4746 H       1  ZINC000537799672    0.0500
     53 H53         1.4436    3.3611   56.9615 H       1  ZINC000537799672    0.1000
     54 H54        -1.8093    1.7695   57.2439 H       1  ZINC000537799672    0.0500
     55 H55        -2.4595    3.0724   58.2681 H       1  ZINC000537799672    0.1000
     56 H56        -2.3772    4.6374   56.3633 H       1  ZINC000537799672    0.0800
     57 H57        -3.3318    3.1971   55.9311 H       1  ZINC000537799672    0.0800
@<TRIPOS>BOND
     1     1     2    1
     2     1    32    1
     3     1    33    1
     4     1    34    1
     5     2     3    1
     6     3     4    1
     7     3     5    1
     8     3    12    1
     9     5    11   ar
    10     5     6   ar
    11     6     7   ar
    12     6    35    1
    13     7     8   ar
    14     7    36    1
    15     8     9    1
    16     8    10   ar
    17    10    11   ar
    18    10    37    1
    19    11    38    1
    20    12    13    1
    21    12    14    1
    22    12    15    1
    23    14    39    1
    24    14    40    1
    25    14    41    1
    26    15    16   am
    27    15    42    1
    28    16    17    2
    29    16    18    1
    30    18    23   ar
    31    18    19   ar
    32    19    20   ar
    33    19    43    1
    34    20    21   ar
    35    20    44    1
    36    21    22   ar
    37    21    45    1
    38    22    23   ar
    39    22    46    1
    40    23    24    1
    41    24    25    1
    42    24    47    1
    43    24    48    1
    44    25    26    1
    45    26    31    1
    46    26    27    1
    47    26    49    1
    48    27    28    1
    49    27    50    1
    50    27    51    1
    51    28    29    1
    52    28    52    1
    53    28    53    1
    54    29    30    1
    55    30    31    1
    56    30    54    1
    57    30    55    1
    58    31    56    1
    59    31    57    1
@<TRIPOS>SUBSTRUCTURE
     1 ZINC000537799672        1 TEMP              0 ****  ****    0 ROOT


##########                                Name:    ZINC000623695407
##########                DOCK_Rotatable_Bonds:                  10
##########                         Heavy_Atoms:                  27
##########                    Molecular_Weight:             368.479
##########                DOCK_Rotatable_Bonds:                  10
##########                       Formal_Charge:           0.0299989
##########                     HBond_Acceptors:                   6
##########                        HBond_Donors:                   2
##########                         Heavy_Atoms:                  27
##########                          Grid_Score:          -33.170547
##########                     Grid_vdw_energy:          -30.590981
##########                      Grid_es_energy:           -2.579568
##########           Internal_energy_repulsive:           12.277872

@<TRIPOS>MOLECULE
ZINC000623695407
 55 57 1 0 0
SMALL
USER_CHARGES


@<TRIPOS>ATOM
      1 C1         -5.9639    1.5257   50.2975 C.3     1  ZINC000623695407    0.0300
      2 O2         -5.8560    2.9393   50.4767 O.3     1  ZINC000623695407   -0.3200
      3 C3         -5.0847    3.3734   51.5081 C.ar    1  ZINC000623695407    0.1300
      4 C4         -5.6559    4.0919   52.5484 C.ar    1  ZINC000623695407   -0.2100
      5 C5         -4.8699    4.5315   53.5959 C.ar    1  ZINC000623695407   -0.0600
      6 C6         -3.5149    4.2564   53.6079 C.ar    1  ZINC000623695407   -0.1100
      7 C7         -2.6597    4.7377   54.7516 C.3     1  ZINC000623695407    0.0600
      8 N8         -1.5936    3.7607   55.0105 N.3     1  ZINC000623695407   -0.4600
      9 C9         -0.2658    4.3441   54.7424 C.3     1  ZINC000623695407    0.0000
     10 C10         0.2375    3.6414   56.0111 C.3     1  ZINC000623695407   -0.1300
     11 C11        -1.2331    3.7385   56.4405 C.3     1  ZINC000623695407    0.0100
     12 H12        -1.4726    4.6646   56.9632 H       1  ZINC000623695407    0.0900
     13 C13        -1.7361    2.4959   57.1779 C.3     1  ZINC000623695407    0.1600
     14 N14        -1.7445    2.7537   58.6200 N.am    1  ZINC000623695407   -0.7400
     15 C15        -0.6280    2.5511   59.3473 C.2     1  ZINC000623695407    0.7100
     16 O16         0.3857    2.1530   58.8067 O.2     1  ZINC000623695407   -0.5900
     17 N17        -0.6354    2.7899   60.6737 N.am    1  ZINC000623695407   -0.7400
     18 C18         0.5778    2.5680   61.4645 C.3     1  ZINC000623695407    0.1700
     19 H19         1.2910    1.9864   60.8804 H       1  ZINC000623695407    0.0900
     20 C20         1.1999    3.9163   61.8333 C.3     1  ZINC000623695407   -0.1600
     21 C21         0.2215    1.8043   62.7415 C.3     1  ZINC000623695407   -0.0900
     22 C22         0.3524    0.3235   62.4944 C.ar    1  ZINC000623695407   -0.0300
     23 C23         1.2993   -0.4283   63.1729 C.ar    1  ZINC000623695407   -0.1700
     24 C24         1.3901   -1.7840   62.9201 C.ar    1  ZINC000623695407    0.1000
     25 N25         0.5902   -2.3621   62.0456 N.ar    1  ZINC000623695407   -0.4900
     26 C26        -0.3216   -1.6786   61.3820 C.ar    1  ZINC000623695407    0.1000
     27 C27        -0.4750   -0.3205   61.5870 C.ar    1  ZINC000623695407   -0.1700
     28 C28        -2.9434    3.5401   52.5725 C.ar    1  ZINC000623695407   -0.0700
     29 C29        -3.7260    3.0938   51.5253 C.ar    1  ZINC000623695407   -0.1500
     30 H30        -6.6063    1.3159   49.4422 H       1  ZINC000623695407    0.1000
     31 H31        -4.9739    1.1053   50.1200 H       1  ZINC000623695407    0.0600
     32 H32        -6.3936    1.0776   51.1934 H       1  ZINC000623695407    0.0600
     33 H33        -6.7141    4.3076   52.5392 H       1  ZINC000623695407    0.1300
     34 H34        -5.3141    5.0909   54.4060 H       1  ZINC000623695407    0.1200
     35 H35        -2.2164    5.6995   54.4940 H       1  ZINC000623695407    0.0600
     36 H36        -3.2754    4.8486   55.6441 H       1  ZINC000623695407    0.0700
     37 H37         0.1954    3.9715   53.8277 H       1  ZINC000623695407    0.0900
     38 H38        -0.2472    5.4317   54.8118 H       1  ZINC000623695407    0.0700
     39 H39         0.5885    2.6225   55.8476 H       1  ZINC000623695407    0.1000
     40 H40         0.9190    4.2422   56.6134 H       1  ZINC000623695407    0.0800
     41 H41        -2.7470    2.2602   56.8450 H       1  ZINC000623695407    0.0700
     42 H42        -1.0773    1.6544   56.9629 H       1  ZINC000623695407    0.0700
     43 H43        -2.5536    3.0702   59.0514 H       1  ZINC000623695407    0.3900
     44 H44        -1.4438    3.1086   61.1046 H       1  ZINC000623695407    0.3900
     45 H45         2.1025    3.7511   62.4217 H       1  ZINC000623695407    0.0700
     46 H46         1.4537    4.4603   60.9235 H       1  ZINC000623695407    0.0700
     47 H47         0.4866    4.4979   62.4174 H       1  ZINC000623695407    0.0600
     48 H48         0.8986    2.1002   63.5427 H       1  ZINC000623695407    0.1000
     49 H49        -0.8043    2.0354   63.0288 H       1  ZINC000623695407    0.0800
     50 H50         1.9577    0.0395   63.8898 H       1  ZINC000623695407    0.1300
     51 H51         2.1250   -2.3768   63.4446 H       1  ZINC000623695407    0.1500
     52 H52        -0.9587   -2.1867   60.6733 H       1  ZINC000623695407    0.1600
     53 H53        -1.2238    0.2339   61.0409 H       1  ZINC000623695407    0.1400
     54 H54        -1.8848    3.3263   52.5843 H       1  ZINC000623695407    0.1200
     55 H55        -3.2792    2.5343   50.7168 H       1  ZINC000623695407    0.1300
@<TRIPOS>BOND
     1     1     2    1
     2     1    30    1
     3     1    31    1
     4     1    32    1
     5     2     3    1
     6     3    29   ar
     7     3     4   ar
     8     4     5   ar
     9     4    33    1
    10     5     6   ar
    11     5    34    1
    12     6     7    1
    13     6    28   ar
    14     7     8    1
    15     7    35    1
    16     7    36    1
    17     8    11    1
    18     8     9    1
    19     9    10    1
    20     9    37    1
    21     9    38    1
    22    10    11    1
    23    10    39    1
    24    10    40    1
    25    11    12    1
    26    11    13    1
    27    13    14    1
    28    13    41    1
    29    13    42    1
    30    14    15   am
    31    14    43    1
    32    15    16    2
    33    15    17   am
    34    17    18    1
    35    17    44    1
    36    18    19    1
    37    18    20    1
    38    18    21    1
    39    20    45    1
    40    20    46    1
    41    20    47    1
    42    21    22    1
    43    21    48    1
    44    21    49    1
    45    22    27   ar
    46    22    23   ar
    47    23    24   ar
    48    23    50    1
    49    24    25   ar
    50    24    51    1
    51    25    26   ar
    52    26    27   ar
    53    26    52    1
    54    27    53    1
    55    28    29   ar
    56    28    54    1
    57    29    55    1
@<TRIPOS>SUBSTRUCTURE
     1 ZINC000623695407        1 TEMP              0 ****  ****    0 ROOT


##########                                Name:    ZINC000642096826
##########                DOCK_Rotatable_Bonds:                  12
##########                         Heavy_Atoms:                  25
##########                    Molecular_Weight:             345.485
##########                DOCK_Rotatable_Bonds:                  12
##########                       Formal_Charge:          0.00999919
##########                     HBond_Acceptors:                   5
##########                        HBond_Donors:                   1
##########                         Heavy_Atoms:                  25
##########                          Grid_Score:          -33.126320
##########                     Grid_vdw_energy:          -32.226746
##########                      Grid_es_energy:           -0.899575
##########           Internal_energy_repulsive:           20.212368

@<TRIPOS>MOLECULE
ZINC000642096826
 56 57 1 0 0
SMALL
USER_CHARGES


@<TRIPOS>ATOM
      1 C1          2.0798    2.4720   45.9941 C.3     1  ZINC000642096826   -0.1500
      2 C2          0.8104    1.9286   46.6533 C.3     1  ZINC000642096826   -0.1400
      3 C3         -0.3954    2.7492   46.1914 C.3     1  ZINC000642096826    0.1200
      4 N4         -0.8157    3.6485   47.2688 N.am    1  ZINC000642096826   -0.6200
      5 C5         -0.2688    5.0055   47.3455 C.3     1  ZINC000642096826    0.1100
      6 C6          0.9549    5.0112   48.2639 C.3     1  ZINC000642096826   -0.1400
      7 C7          1.5267    6.4280   48.3428 C.3     1  ZINC000642096826   -0.1500
      8 C8         -1.7054    3.2276   48.1894 C.2     1  ZINC000642096826    0.5200
      9 O9         -2.1570    2.1038   48.1269 O.2     1  ZINC000642096826   -0.5200
     10 C10        -2.1391    4.1534   49.2968 C.3     1  ZINC000642096826    0.0400
     11 N11        -2.6732    3.3636   50.4143 N.3     1  ZINC000642096826   -0.5200
     12 C12        -1.6339    3.1039   51.4195 C.3     1  ZINC000642096826    0.0100
     13 C13        -3.8364    4.0266   51.0188 C.3     1  ZINC000642096826    0.0900
     14 C14        -4.8942    2.9995   51.3304 C.ar    1  ZINC000642096826   -0.0500
     15 C15        -5.5425    3.0273   52.5524 C.ar    1  ZINC000642096826   -0.1000
     16 C16        -6.5115    2.0897   52.8442 C.ar    1  ZINC000642096826   -0.0600
     17 C17        -6.8376    1.1117   51.9032 C.ar    1  ZINC000642096826   -0.1400
     18 C18        -7.8754    0.1041   52.2089 C.2     1  ZINC000642096826    0.5600
     19 O19        -7.5668   -1.0634   52.3477 O.2     1  ZINC000642096826   -0.5300
     20 N20        -9.1636    0.4799   52.3338 N.am    1  ZINC000642096826   -0.7000
     21 C21       -10.1922   -0.5188   52.6350 C.3     1  ZINC000642096826    0.0800
     22 C22       -10.4645   -0.8305   54.1081 C.3     1  ZINC000642096826   -0.1900
     23 C23       -11.4820   -0.0275   53.2953 C.3     1  ZINC000642096826   -0.1900
     24 C24        -6.1802    1.0895   50.6722 C.ar    1  ZINC000642096826   -0.0900
     25 C25        -5.2168    2.0362   50.3911 C.ar    1  ZINC000642096826   -0.1200
     26 H26         1.9855    2.4008   44.9105 H       1  ZINC000642096826    0.0600
     27 H27         2.2193    3.5147   46.2791 H       1  ZINC000642096826    0.0600
     28 H28         2.9389    1.8873   46.3232 H       1  ZINC000642096826    0.0600
     29 H29         0.6709    0.8858   46.3683 H       1  ZINC000642096826    0.0600
     30 H30         0.9048    1.9996   47.7369 H       1  ZINC000642096826    0.0600
     31 H31        -0.1213    3.3358   45.3146 H       1  ZINC000642096826    0.0800
     32 H32        -1.2159    2.0780   45.9376 H       1  ZINC000642096826    0.0800
     33 H33         0.0234    5.3363   46.3488 H       1  ZINC000642096826    0.0800
     34 H34        -1.0260    5.6803   47.7448 H       1  ZINC000642096826    0.0800
     35 H35         0.6624    4.6814   49.2607 H       1  ZINC000642096826    0.0700
     36 H36         1.7116    4.3356   47.8651 H       1  ZINC000642096826    0.0700
     37 H37         2.3985    6.4321   48.9971 H       1  ZINC000642096826    0.0600
     38 H38         1.8192    6.7579   47.3458 H       1  ZINC000642096826    0.0600
     39 H39         0.7699    7.1036   48.7416 H       1  ZINC000642096826    0.0600
     40 H40        -1.2838    4.7356   49.6394 H       1  ZINC000642096826    0.0600
     41 H41        -2.9117    4.8266   48.9256 H       1  ZINC000642096826    0.1000
     42 H42        -1.2597    4.0509   51.8082 H       1  ZINC000642096826    0.0200
     43 H43        -2.0562    2.5176   52.2355 H       1  ZINC000642096826    0.0700
     44 H44        -0.8148    2.5504   50.9605 H       1  ZINC000642096826    0.0900
     45 H45        -3.5325    4.5258   51.9389 H       1  ZINC000642096826    0.0500
     46 H46        -4.2382    4.7621   50.3219 H       1  ZINC000642096826    0.0900
     47 H47        -5.2892    3.7845   53.2797 H       1  ZINC000642096826    0.1300
     48 H48        -7.0163    2.1120   53.7987 H       1  ZINC000642096826    0.1400
     49 H49        -9.4097    1.4118   52.2242 H       1  ZINC000642096826    0.4000
     50 H50       -10.2726   -1.3403   51.9233 H       1  ZINC000642096826    0.1400
     51 H51       -10.7237   -1.8573   54.3656 H       1  ZINC000642096826    0.1000
     52 H52        -9.8781   -0.2924   54.8530 H       1  ZINC000642096826    0.1000
     53 H53       -11.5652    1.0388   53.5056 H       1  ZINC000642096826    0.1000
     54 H54       -12.4109   -0.5261   53.0182 H       1  ZINC000642096826    0.1100
     55 H55        -6.4277    0.3352   49.9400 H       1  ZINC000642096826    0.1200
     56 H56        -4.7076    2.0203   49.4388 H       1  ZINC000642096826    0.1300
@<TRIPOS>BOND
     1     1     2    1
     2     1    26    1
     3     1    27    1
     4     1    28    1
     5     2     3    1
     6     2    29    1
     7     2    30    1
     8     3     4    1
     9     3    31    1
    10     3    32    1
    11     4     5    1
    12     4     8   am
    13     5     6    1
    14     5    33    1
    15     5    34    1
    16     6     7    1
    17     6    35    1
    18     6    36    1
    19     7    37    1
    20     7    38    1
    21     7    39    1
    22     8     9    2
    23     8    10    1
    24    10    11    1
    25    10    40    1
    26    10    41    1
    27    11    12    1
    28    11    13    1
    29    12    42    1
    30    12    43    1
    31    12    44    1
    32    13    14    1
    33    13    45    1
    34    13    46    1
    35    14    25   ar
    36    14    15   ar
    37    15    16   ar
    38    15    47    1
    39    16    17   ar
    40    16    48    1
    41    17    18    1
    42    17    24   ar
    43    18    19    2
    44    18    20   am
    45    20    21    1
    46    20    49    1
    47    21    23    1
    48    21    22    1
    49    21    50    1
    50    22    23    1
    51    22    51    1
    52    22    52    1
    53    23    53    1
    54    23    54    1
    55    24    25   ar
    56    24    55    1
    57    25    56    1
@<TRIPOS>SUBSTRUCTURE
     1 ZINC000642096826        1 TEMP              0 ****  ****    0 ROOT


##########                                Name:    ZINC000487792031
##########                DOCK_Rotatable_Bonds:                  12
##########                         Heavy_Atoms:                  29
##########                    Molecular_Weight:             414.569
##########                DOCK_Rotatable_Bonds:                  12
##########                       Formal_Charge:          -0.0100001
##########                     HBond_Acceptors:                   6
##########                        HBond_Donors:                   1
##########                         Heavy_Atoms:                  29
##########                          Grid_Score:          -33.062885
##########                     Grid_vdw_energy:          -33.121307
##########                      Grid_es_energy:            0.058422
##########           Internal_energy_repulsive:           18.843908

@<TRIPOS>MOLECULE
ZINC000487792031
 59 60 1 0 0
SMALL
USER_CHARGES


@<TRIPOS>ATOM
      1 C1          4.3114    2.9028   45.4710 C.2     1  ZINC000487792031   -0.1900
      2 C2          3.2203    2.2355   45.1871 C.2     1  ZINC000487792031   -0.1500
      3 C3          1.9598    2.4819   45.9755 C.3     1  ZINC000487792031   -0.0900
      4 C4          1.8268    1.4207   47.0695 C.3     1  ZINC000487792031   -0.0900
      5 C5          2.6926    1.8129   48.2684 C.3     1  ZINC000487792031   -0.0700
      6 H6          3.6153    2.2735   47.9151 H       1  ZINC000487792031    0.1100
      7 C7          1.9407    2.7928   49.1319 C.2     1  ZINC000487792031    0.5200
      8 O8          2.4285    3.8730   49.3891 O.2     1  ZINC000487792031   -0.5300
      9 N9          0.7263    2.4688   49.6183 N.am    1  ZINC000487792031   -0.7200
     10 C10        -0.0039    3.4206   50.4591 C.3     1  ZINC000487792031    0.1500
     11 C11        -1.4563    3.0238   50.5222 C.ar    1  ZINC000487792031   -0.0500
     12 C12        -2.1181    2.6382   49.3715 C.ar    1  ZINC000487792031   -0.1200
     13 C13        -3.4504    2.2742   49.4294 C.ar    1  ZINC000487792031   -0.0200
     14 C14        -4.1208    2.2953   50.6382 C.ar    1  ZINC000487792031   -0.6700
     15 S15        -5.8192    1.8319   50.7119 S.o2    1  ZINC000487792031    2.6900
     16 O16        -6.4176    2.3088   49.5145 O.2     1  ZINC000487792031   -0.9500
     17 O17        -5.8458    0.4662   51.1036 O.2     1  ZINC000487792031   -0.9500
     18 N18        -6.5073    2.6874   51.9515 N.am    1  ZINC000487792031   -1.0000
     19 C19        -6.5047    4.1521   51.9207 C.3     1  ZINC000487792031    0.1200
     20 C20        -7.8291    4.6523   51.3406 C.3     1  ZINC000487792031   -0.1800
     21 C21        -7.1188    1.9795   53.0790 C.3     1  ZINC000487792031    0.1100
     22 C22        -8.4935    1.4511   52.6644 C.3     1  ZINC000487792031   -0.1800
     23 C23        -3.4587    2.6797   51.7892 C.ar    1  ZINC000487792031   -0.0200
     24 C24        -2.1252    3.0399   51.7319 C.ar    1  ZINC000487792031   -0.1200
     25 C25         3.0217    0.5829   49.0743 C.ar    1  ZINC000487792031   -0.0800
     26 C26         4.2481    0.4761   49.7031 C.ar    1  ZINC000487792031   -0.1100
     27 C27         4.5499   -0.6524   50.4424 C.ar    1  ZINC000487792031   -0.1100
     28 C28         3.6250   -1.6738   50.5532 C.ar    1  ZINC000487792031   -0.1200
     29 C29         2.3982   -1.5666   49.9253 C.ar    1  ZINC000487792031   -0.1200
     30 C30         2.0948   -0.4362   49.1895 C.ar    1  ZINC000487792031   -0.1100
     31 H31         5.2147    2.7262   44.9060 H       1  ZINC000487792031    0.1000
     32 H32         4.3063    3.6326   46.2670 H       1  ZINC000487792031    0.1000
     33 H33         3.2242    1.5088   44.3882 H       1  ZINC000487792031    0.1100
     34 H34         2.0041    3.4708   46.4318 H       1  ZINC000487792031    0.0700
     35 H35         1.0984    2.4275   45.3097 H       1  ZINC000487792031    0.0700
     36 H36         0.7849    1.3492   47.3816 H       1  ZINC000487792031    0.0800
     37 H37         2.1572    0.4567   46.6826 H       1  ZINC000487792031    0.0700
     38 H38         0.3357    1.6052   49.4117 H       1  ZINC000487792031    0.4000
     39 H39         0.4181    3.4157   51.4642 H       1  ZINC000487792031    0.0800
     40 H40         0.0815    4.4207   50.0342 H       1  ZINC000487792031    0.0800
     41 H41        -1.5944    2.6216   48.4272 H       1  ZINC000487792031    0.1400
     42 H42        -3.9677    1.9736   48.5303 H       1  ZINC000487792031    0.1400
     43 H43        -6.3832    4.5367   52.9333 H       1  ZINC000487792031    0.0800
     44 H44        -5.6807    4.5009   51.2983 H       1  ZINC000487792031    0.0800
     45 H45        -7.9506    4.2679   50.3280 H       1  ZINC000487792031    0.0600
     46 H46        -8.6532    4.3036   51.9630 H       1  ZINC000487792031    0.0600
     47 H47        -7.8272    5.7421   51.3177 H       1  ZINC000487792031    0.0700
     48 H48        -6.4821    1.1448   53.3723 H       1  ZINC000487792031    0.0900
     49 H49        -7.2311    2.6638   53.9199 H       1  ZINC000487792031    0.0900
     50 H50        -9.1302    2.2859   52.3711 H       1  ZINC000487792031    0.0600
     51 H51        -8.3813    0.7668   51.8235 H       1  ZINC000487792031    0.0600
     52 H52        -8.9484    0.9245   53.5033 H       1  ZINC000487792031    0.0700
     53 H53        -3.9823    2.6958   52.7336 H       1  ZINC000487792031    0.1400
     54 H54        -1.6079    3.3402   52.6312 H       1  ZINC000487792031    0.1400
     55 H55         4.9706    1.2741   49.6164 H       1  ZINC000487792031    0.1200
     56 H56         5.5083   -0.7361   50.9330 H       1  ZINC000487792031    0.1200
     57 H57         3.8611   -2.5556   51.1303 H       1  ZINC000487792031    0.1200
     58 H58         1.6758   -2.3647   50.0117 H       1  ZINC000487792031    0.1200
     59 H59         1.1363   -0.3525   48.6989 H       1  ZINC000487792031    0.1200
@<TRIPOS>BOND
     1     1     2    2
     2     1    31    1
     3     1    32    1
     4     2     3    1
     5     2    33    1
     6     3     4    1
     7     3    34    1
     8     3    35    1
     9     4     5    1
    10     4    36    1
    11     4    37    1
    12     5     6    1
    13     5     7    1
    14     5    25    1
    15     7     8    2
    16     7     9   am
    17     9    10    1
    18     9    38    1
    19    10    11    1
    20    10    39    1
    21    10    40    1
    22    11    24   ar
    23    11    12   ar
    24    12    13   ar
    25    12    41    1
    26    13    14   ar
    27    13    42    1
    28    14    15    1
    29    14    23   ar
    30    15    16    2
    31    15    17    2
    32    15    18   am
    33    18    19    1
    34    18    21    1
    35    19    20    1
    36    19    43    1
    37    19    44    1
    38    20    45    1
    39    20    46    1
    40    20    47    1
    41    21    22    1
    42    21    48    1
    43    21    49    1
    44    22    50    1
    45    22    51    1
    46    22    52    1
    47    23    24   ar
    48    23    53    1
    49    24    54    1
    50    25    30   ar
    51    25    26   ar
    52    26    27   ar
    53    26    55    1
    54    27    28   ar
    55    27    56    1
    56    28    29   ar
    57    28    57    1
    58    29    30   ar
    59    29    58    1
    60    30    59    1
@<TRIPOS>SUBSTRUCTURE
     1 ZINC000487792031        1 TEMP              0 ****  ****    0 ROOT


##########                                Name:    ZINC000508782983
##########                DOCK_Rotatable_Bonds:                   9
##########                         Heavy_Atoms:                  27
##########                    Molecular_Weight:             373.458
##########                DOCK_Rotatable_Bonds:                   9
##########                       Formal_Charge:          -0.0200006
##########                     HBond_Acceptors:                   9
##########                        HBond_Donors:                   2
##########                         Heavy_Atoms:                  27
##########                          Grid_Score:          -33.028198
##########                     Grid_vdw_energy:          -33.083584
##########                      Grid_es_energy:            0.055384
##########           Internal_energy_repulsive:           13.619541

@<TRIPOS>MOLECULE
ZINC000508782983
 54 56 1 0 0
SMALL
USER_CHARGES


@<TRIPOS>ATOM
      1 C1        -10.7908    2.5891   53.5971 C.3     1  ZINC000508782983   -0.1500
      2 C2         -9.7994    2.1222   52.5294 C.3     1  ZINC000508782983   -0.1100
      3 C3         -9.5525    3.2560   51.5320 C.3     1  ZINC000508782983   -0.1500
      4 C4         -8.4783    1.7325   53.1956 C.3     1  ZINC000508782983    0.1000
      5 N5         -7.7930    0.7323   52.3732 N.pl3   1  ZINC000508782983   -0.4400
      6 C6         -8.0589   -0.6100   52.3372 C.2     1  ZINC000508782983   -0.0400
      7 C7         -7.2014   -1.1535   51.4524 C.2     1  ZINC000508782983   -0.0300
      8 N8         -6.4329   -0.1698   50.9615 N.2     1  ZINC000508782983   -0.4700
      9 C9         -6.7850    0.9632   51.5049 C.2     1  ZINC000508782983    0.1700
     10 C10        -6.1632    2.3057   51.2178 C.3     1  ZINC000508782983    0.2100
     11 N11        -4.7170    2.2315   51.4400 N.am    1  ZINC000508782983   -0.6900
     12 C12        -3.9620    3.3435   51.3402 C.2     1  ZINC000508782983    0.5100
     13 O13        -4.4799    4.4058   51.0648 O.2     1  ZINC000508782983   -0.5100
     14 C14        -2.4869    3.2682   51.5688 C.2     1  ZINC000508782983    0.5100
     15 O15        -2.0548    3.0909   52.6887 O.2     1  ZINC000508782983   -0.5200
     16 N16        -1.6368    3.3972   50.5309 N.am    1  ZINC000508782983   -0.5800
     17 C17        -0.1820    3.3201   50.7328 C.3     1  ZINC000508782983    0.0800
     18 C18         0.3943    2.3057   49.7392 C.3     1  ZINC000508782983    0.0400
     19 N19        -0.0258    2.6652   48.3782 N.3     1  ZINC000508782983   -0.5400
     20 C20         0.6441    1.8208   47.3802 C.3     1  ZINC000508782983    0.1400
     21 C21         0.9130    2.6293   46.1372 C.2     1  ZINC000508782983    0.2100
     22 N22         2.0914    2.9030   45.6479 N.2     1  ZINC000508782983   -0.4900
     23 C23         1.9487    3.6410   44.5371 C.2     1  ZINC000508782983   -0.0300
     24 C24         0.6319    3.8319   44.3301 C.2     1  ZINC000508782983   -0.0500
     25 N25        -0.0259    3.1859   45.3420 N.pl3   1  ZINC000508782983   -0.5600
     26 C26        -1.4860    2.5925   48.2346 C.3     1  ZINC000508782983    0.0400
     27 C27        -2.1395    3.6126   49.1656 C.3     1  ZINC000508782983    0.1100
     28 H28       -11.7319    2.8669   53.1223 H       1  ZINC000508782983    0.0700
     29 H29       -10.9667    1.7815   54.3075 H       1  ZINC000508782983    0.0600
     30 H30       -10.3801    3.4517   54.1218 H       1  ZINC000508782983    0.0600
     31 H31       -10.2100    1.2597   52.0044 H       1  ZINC000508782983    0.0800
     32 H32        -9.2148    4.1435   52.0671 H       1  ZINC000508782983    0.0600
     33 H33        -8.7889    2.9507   50.8165 H       1  ZINC000508782983    0.0600
     34 H34       -10.4778    3.4815   51.0019 H       1  ZINC000508782983    0.0600
     35 H35        -7.8471    2.6154   53.2950 H       1  ZINC000508782983    0.1000
     36 H36        -8.6784    1.3158   54.1827 H       1  ZINC000508782983    0.0900
     37 H37        -8.8115   -1.1328   52.9088 H       1  ZINC000508782983    0.1800
     38 H38        -7.1428   -2.1981   51.1848 H       1  ZINC000508782983    0.1700
     39 H39        -6.3578    2.5821   50.1815 H       1  ZINC000508782983    0.0900
     40 H40        -6.5947    3.0554   51.8810 H       1  ZINC000508782983    0.1100
     41 H41        -4.3029    1.3821   51.6590 H       1  ZINC000508782983    0.4200
     42 H42         0.2644    4.2989   50.5571 H       1  ZINC000508782983    0.0800
     43 H43         0.0297    2.9955   51.7516 H       1  ZINC000508782983    0.1400
     44 H44         1.4826    2.3163   49.7986 H       1  ZINC000508782983    0.0900
     45 H45         0.0260    1.3090   49.9822 H       1  ZINC000508782983    0.0400
     46 H46         1.5870    1.4556   47.7871 H       1  ZINC000508782983    0.0900
     47 H47         0.0036    0.9745   47.1316 H       1  ZINC000508782983    0.0700
     48 H48         2.7496    4.0162   43.9173 H       1  ZINC000508782983    0.1700
     49 H49         0.1811    4.3850   43.5193 H       1  ZINC000508782983    0.1800
     50 H50        -0.9866    3.1410   45.4674 H       1  ZINC000508782983    0.4200
     51 H51        -1.7613    2.8111   47.2029 H       1  ZINC000508782983    0.1100
     52 H52        -1.8280    1.5918   48.4986 H       1  ZINC000508782983    0.0400
     53 H53        -3.2217    3.4841   49.1477 H       1  ZINC000508782983    0.1000
     54 H54        -1.8823    4.6212   48.8420 H       1  ZINC000508782983    0.0800
@<TRIPOS>BOND
     1     1     2    1
     2     1    28    1
     3     1    29    1
     4     1    30    1
     5     2     3    1
     6     2     4    1
     7     2    31    1
     8     3    32    1
     9     3    33    1
    10     3    34    1
    11     4     5    1
    12     4    35    1
    13     4    36    1
    14     5     9    1
    15     5     6    1
    16     6     7    2
    17     6    37    1
    18     7     8    1
    19     7    38    1
    20     8     9    2
    21     9    10    1
    22    10    11    1
    23    10    39    1
    24    10    40    1
    25    11    12   am
    26    11    41    1
    27    12    13    2
    28    12    14    1
    29    14    15    2
    30    14    16   am
    31    16    27    1
    32    16    17    1
    33    17    18    1
    34    17    42    1
    35    17    43    1
    36    18    19    1
    37    18    44    1
    38    18    45    1
    39    19    20    1
    40    19    26    1
    41    20    21    1
    42    20    46    1
    43    20    47    1
    44    21    25    1
    45    21    22    2
    46    22    23    1
    47    23    24    2
    48    23    48    1
    49    24    25    1
    50    24    49    1
    51    25    50    1
    52    26    27    1
    53    26    51    1
    54    26    52    1
    55    27    53    1
    56    27    54    1
@<TRIPOS>SUBSTRUCTURE
     1 ZINC000508782983        1 TEMP              0 ****  ****    0 ROOT


##########                                Name:    ZINC000512699033
##########                DOCK_Rotatable_Bonds:                   9
##########                         Heavy_Atoms:                  30
##########                    Molecular_Weight:              405.54
##########                DOCK_Rotatable_Bonds:                   9
##########                       Formal_Charge:           0.0199988
##########                     HBond_Acceptors:                   5
##########                        HBond_Donors:                   2
##########                         Heavy_Atoms:                  30
##########                          Grid_Score:          -32.931480
##########                     Grid_vdw_energy:          -30.115046
##########                      Grid_es_energy:           -2.816436
##########           Internal_energy_repulsive:           13.417543

@<TRIPOS>MOLECULE
ZINC000512699033
 61 64 1 0 0
SMALL
USER_CHARGES


@<TRIPOS>ATOM
      1 O1         -4.5964    6.1415   55.9665 O.2     1  ZINC000512699033   -0.5100
      2 C2         -4.2037    5.0153   55.7467 C.2     1  ZINC000512699033    0.5200
      3 C3         -2.9422    4.5158   56.4027 C.3     1  ZINC000512699033   -0.1500
      4 C4         -3.2770    3.3409   57.3238 C.3     1  ZINC000512699033    0.1300
      5 N5         -2.1308    3.0583   58.1913 N.am    1  ZINC000512699033   -0.7300
      6 C6         -1.0290    2.4722   57.6824 C.2     1  ZINC000512699033    0.5200
      7 O7         -0.9870    2.1771   56.5069 O.2     1  ZINC000512699033   -0.5300
      8 C8          0.1509    2.1832   58.5744 C.3     1  ZINC000512699033   -0.1100
      9 C9          1.4475    2.4181   57.7971 C.3     1  ZINC000512699033   -0.1100
     10 C10         2.6453    2.1247   58.7028 C.3     1  ZINC000512699033   -0.1200
     11 C11         2.6045    3.0521   59.9189 C.3     1  ZINC000512699033   -0.1200
     12 C12         1.3077    2.8171   60.6962 C.3     1  ZINC000512699033   -0.1200
     13 C13         0.1100    3.1106   59.7906 C.3     1  ZINC000512699033   -0.1000
     14 N14        -4.8982    4.2085   54.9201 N.am    1  ZINC000512699033   -0.6600
     15 C15        -6.0696    4.6724   54.3110 C.ar    1  ZINC000512699033    0.1700
     16 C16        -7.2561    4.7199   55.0306 C.ar    1  ZINC000512699033   -0.1400
     17 C17        -8.4105    5.1788   54.4265 C.ar    1  ZINC000512699033   -0.1000
     18 C18        -8.3854    5.5900   53.1067 C.ar    1  ZINC000512699033   -0.1400
     19 C19        -7.2051    5.5439   52.3873 C.ar    1  ZINC000512699033   -0.0900
     20 C20        -6.0464    5.0916   52.9871 C.ar    1  ZINC000512699033   -0.1200
     21 C21        -4.7608    5.0417   52.2025 C.3     1  ZINC000512699033    0.0900
     22 N22        -4.4574    3.6488   51.8477 N.3     1  ZINC000512699033   -0.4700
     23 C23        -5.6831    2.9253   51.4453 C.3     1  ZINC000512699033    0.0500
     24 C24        -5.1493    1.9008   50.4180 C.3     1  ZINC000512699033   -0.0900
     25 C25        -3.8919    2.5690   49.8985 C.ar    1  ZINC000512699033   -0.1400
     26 C26        -3.1206    2.3246   48.7820 C.ar    1  ZINC000512699033   -0.0800
     27 C27        -2.0023    3.0987   48.5288 C.ar    1  ZINC000512699033   -0.1400
     28 C28        -1.6593    4.1185   49.3972 C.ar    1  ZINC000512699033   -0.0900
     29 C29        -2.4264    4.3656   50.5168 C.ar    1  ZINC000512699033   -0.1400
     30 C30        -3.5527    3.5884   50.7805 C.ar    1  ZINC000512699033    0.0900
     31 H31        -2.2395    4.1881   55.6366 H       1  ZINC000512699033    0.1100
     32 H32        -2.4940    5.3193   56.9872 H       1  ZINC000512699033    0.1000
     33 H33        -4.1424    3.5944   57.9362 H       1  ZINC000512699033    0.0800
     34 H34        -3.5032    2.4606   56.7222 H       1  ZINC000512699033    0.0800
     35 H35        -2.1648    3.2933   59.1317 H       1  ZINC000512699033    0.4000
     36 H36         0.1094    1.1459   58.9069 H       1  ZINC000512699033    0.1000
     37 H37         1.4766    1.7574   56.9307 H       1  ZINC000512699033    0.0700
     38 H38         1.4889    3.4553   57.4646 H       1  ZINC000512699033    0.0700
     39 H39         2.6039    1.0874   59.0352 H       1  ZINC000512699033    0.0600
     40 H40         3.5691    2.2921   58.1490 H       1  ZINC000512699033    0.0700
     41 H41         3.4578    2.8430   60.5640 H       1  ZINC000512699033    0.0600
     42 H42         2.6459    4.0893   59.5863 H       1  ZINC000512699033    0.0600
     43 H43         1.2663    1.7799   61.0287 H       1  ZINC000512699033    0.0600
     44 H44         1.2787    3.4779   61.5626 H       1  ZINC000512699033    0.0700
     45 H45         0.1514    4.1478   59.4580 H       1  ZINC000512699033    0.0700
     46 H46        -0.8138    2.9432   60.3443 H       1  ZINC000512699033    0.0700
     47 H47        -4.5863    3.3065   54.7476 H       1  ZINC000512699033    0.4200
     48 H48        -7.2765    4.3982   56.0614 H       1  ZINC000512699033    0.1500
     49 H49        -9.3337    5.2160   54.9857 H       1  ZINC000512699033    0.1300
     50 H50        -9.2895    5.9477   52.6365 H       1  ZINC000512699033    0.1200
     51 H51        -7.1887    5.8658   51.3565 H       1  ZINC000512699033    0.1200
     52 H52        -4.8668    5.6334   51.2932 H       1  ZINC000512699033    0.0600
     53 H53        -3.9499    5.4473   52.8075 H       1  ZINC000512699033    0.0900
     54 H54        -6.1310    2.4183   52.3000 H       1  ZINC000512699033    0.1000
     55 H55        -6.3973    3.6040   50.9791 H       1  ZINC000512699033    0.0600
     56 H56        -4.9109    0.9548   50.9043 H       1  ZINC000512699033    0.0900
     57 H57        -5.8682    1.7516   49.6123 H       1  ZINC000512699033    0.0800
     58 H58        -3.3896    1.5277   48.1045 H       1  ZINC000512699033    0.1200
     59 H59        -1.3980    2.9064   47.6546 H       1  ZINC000512699033    0.1300
     60 H60        -0.7872    4.7236   49.1984 H       1  ZINC000512699033    0.1300
     61 H61        -2.1529    5.1635   51.1915 H       1  ZINC000512699033    0.1200
@<TRIPOS>BOND
     1     1     2    2
     2     2     3    1
     3     2    14   am
     4     3     4    1
     5     3    31    1
     6     3    32    1
     7     4     5    1
     8     4    33    1
     9     4    34    1
    10     5     6   am
    11     5    35    1
    12     6     7    2
    13     6     8    1
    14     8    13    1
    15     8     9    1
    16     8    36    1
    17     9    10    1
    18     9    37    1
    19     9    38    1
    20    10    11    1
    21    10    39    1
    22    10    40    1
    23    11    12    1
    24    11    41    1
    25    11    42    1
    26    12    13    1
    27    12    43    1
    28    12    44    1
    29    13    45    1
    30    13    46    1
    31    14    15    1
    32    14    47    1
    33    15    20   ar
    34    15    16   ar
    35    16    17   ar
    36    16    48    1
    37    17    18   ar
    38    17    49    1
    39    18    19   ar
    40    18    50    1
    41    19    20   ar
    42    19    51    1
    43    20    21    1
    44    21    22    1
    45    21    52    1
    46    21    53    1
    47    22    30    1
    48    22    23    1
    49    23    24    1
    50    23    54    1
    51    23    55    1
    52    24    25    1
    53    24    56    1
    54    24    57    1
    55    25    30   ar
    56    25    26   ar
    57    26    27   ar
    58    26    58    1
    59    27    28   ar
    60    27    59    1
    61    28    29   ar
    62    28    60    1
    63    29    30   ar
    64    29    61    1
@<TRIPOS>SUBSTRUCTURE
     1 ZINC000512699033        1 TEMP              0 ****  ****    0 ROOT


##########                                Name:    ZINC000980108339
##########                DOCK_Rotatable_Bonds:                   9
##########                         Heavy_Atoms:                  25
##########                    Molecular_Weight:             348.445
##########                DOCK_Rotatable_Bonds:                   9
##########                       Formal_Charge:          -0.0100001
##########                     HBond_Acceptors:                   7
##########                        HBond_Donors:                   3
##########                         Heavy_Atoms:                  25
##########                          Grid_Score:          -32.924419
##########                     Grid_vdw_energy:          -31.051123
##########                      Grid_es_energy:           -1.873297
##########           Internal_energy_repulsive:            8.674376

@<TRIPOS>MOLECULE
ZINC000980108339
 53 56 1 0 0
SMALL
USER_CHARGES


@<TRIPOS>ATOM
      1 C1         -8.8091    1.2524   53.1968 C.3     1  ZINC000980108339    0.1200
      2 N2         -7.8631    1.2312   52.0782 N.am    1  ZINC000980108339   -0.6400
      3 C3         -7.4187    2.4075   51.3158 C.3     1  ZINC000980108339    0.1100
      4 C4         -6.4434    1.8254   50.2743 C.3     1  ZINC000980108339    0.1000
      5 H5         -6.8052    2.0146   49.2636 H       1  ZINC000980108339    0.1200
      6 C6         -5.0648    2.4057   50.4583 C.2     1  ZINC000980108339    0.5000
      7 O7         -4.0875    1.6989   50.3315 O.2     1  ZINC000980108339   -0.5200
      8 N8         -4.9180    3.7102   50.7636 N.am    1  ZINC000980108339   -0.7200
      9 C9         -3.5780    4.2739   50.9441 C.3     1  ZINC000980108339    0.1300
     10 C10        -3.0306    3.8604   52.3117 C.3     1  ZINC000980108339   -0.1200
     11 H11        -2.8511    2.7881   52.3891 H       1  ZINC000980108339    0.1000
     12 C12        -1.8467    4.7191   52.7867 C.3     1  ZINC000980108339   -0.1400
     13 C13        -2.4716    4.6638   54.1908 C.3     1  ZINC000980108339    0.1200
     14 H14        -2.4102    5.6071   54.7334 H       1  ZINC000980108339    0.1100
     15 N15        -2.0239    3.5189   54.9876 N.am    1  ZINC000980108339   -0.7200
     16 C16        -0.8388    3.5656   55.6276 C.2     1  ZINC000980108339    0.5200
     17 O17        -0.1435    4.5559   55.5450 O.2     1  ZINC000980108339   -0.5300
     18 C18        -0.3773    2.3871   56.4459 C.3     1  ZINC000980108339   -0.1100
     19 C19        -0.7862    2.5889   57.9063 C.3     1  ZINC000980108339   -0.1300
     20 H20        -1.7993    2.2753   58.1586 H       1  ZINC000980108339    0.1200
     21 C21        -0.2227    3.8103   58.6355 C.3     1  ZINC000980108339   -0.1700
     22 C22         0.2951    2.4100   58.9739 C.3     1  ZINC000980108339   -0.1200
     23 H23         1.2979    2.1489   58.6359 H       1  ZINC000980108339    0.1000
     24 C24        -0.1278    1.8054   60.3142 C.3     1  ZINC000980108339   -0.1300
     25 C25         0.9733    1.2365   61.2114 C.3     1  ZINC000980108339   -0.1800
     26 C26         0.2834    2.5497   61.5862 C.3     1  ZINC000980108339   -0.1800
     27 C27        -3.8259    4.4386   53.4942 C.3     1  ZINC000980108339   -0.1400
     28 N28        -6.4419    0.3830   50.5604 N.am    1  ZINC000980108339   -0.7200
     29 C29        -7.2614    0.1380   51.5913 C.2     1  ZINC000980108339    0.7000
     30 O30        -7.4490   -0.9769   52.0386 O.2     1  ZINC000980108339   -0.5800
     31 H31        -8.9492    0.2392   53.5734 H       1  ZINC000980108339    0.0900
     32 H32        -8.4162    1.8848   53.9929 H       1  ZINC000980108339    0.0600
     33 H33        -9.7655    1.6491   52.8563 H       1  ZINC000980108339    0.0600
     34 H34        -8.2649    2.8856   50.8223 H       1  ZINC000980108339    0.1000
     35 H35        -6.9053    3.1142   51.9676 H       1  ZINC000980108339    0.0900
     36 H36        -5.6997    4.2759   50.8637 H       1  ZINC000980108339    0.4000
     37 H37        -2.9183    3.9008   50.1609 H       1  ZINC000980108339    0.0700
     38 H38        -3.6306    5.3612   50.8875 H       1  ZINC000980108339    0.0700
     39 H39        -0.8841    4.2125   52.7170 H       1  ZINC000980108339    0.0800
     40 H40        -1.8319    5.7197   52.3544 H       1  ZINC000980108339    0.1000
     41 H41        -2.5805    2.7273   55.0547 H       1  ZINC000980108339    0.4000
     42 H42        -0.8369    1.4762   56.0624 H       1  ZINC000980108339    0.1000
     43 H43         0.7074    2.3020   56.3807 H       1  ZINC000980108339    0.1000
     44 H44         0.4395    4.4700   58.0747 H       1  ZINC000980108339    0.0900
     45 H45        -0.8648    4.2999   59.3676 H       1  ZINC000980108339    0.1000
     46 H46        -1.0925    1.2980   60.3176 H       1  ZINC000980108339    0.1000
     47 H47         0.7331    0.3544   61.8052 H       1  ZINC000980108339    0.0900
     48 H48         1.9989    1.2930   60.8467 H       1  ZINC000980108339    0.0900
     49 H49         0.8552    3.4702   61.4681 H       1  ZINC000980108339    0.0900
     50 H50        -0.4106    2.5316   62.4264 H       1  ZINC000980108339    0.0900
     51 H51        -4.3528    5.3623   53.2550 H       1  ZINC000980108339    0.1000
     52 H52        -4.4587    3.7068   53.9962 H       1  ZINC000980108339    0.0800
     53 H53        -5.9262   -0.2845   50.0815 H       1  ZINC000980108339    0.4400
@<TRIPOS>BOND
     1     1     2    1
     2     1    31    1
     3     1    32    1
     4     1    33    1
     5     2    29   am
     6     2     3    1
     7     3     4    1
     8     3    34    1
     9     3    35    1
    10     4     5    1
    11     4     6    1
    12     4    28    1
    13     6     7    2
    14     6     8   am
    15     8     9    1
    16     8    36    1
    17     9    10    1
    18     9    37    1
    19     9    38    1
    20    10    11    1
    21    10    27    1
    22    10    12    1
    23    12    13    1
    24    12    39    1
    25    12    40    1
    26    13    14    1
    27    13    15    1
    28    13    27    1
    29    15    16   am
    30    15    41    1
    31    16    17    2
    32    16    18    1
    33    18    19    1
    34    18    42    1
    35    18    43    1
    36    19    20    1
    37    19    22    1
    38    19    21    1
    39    21    22    1
    40    21    44    1
    41    21    45    1
    42    22    23    1
    43    22    24    1
    44    24    26    1
    45    24    25    1
    46    24    46    1
    47    25    26    1
    48    25    47    1
    49    25    48    1
    50    26    49    1
    51    26    50    1
    52    27    51    1
    53    27    52    1
    54    28    29   am
    55    28    53    1
    56    29    30    2
@<TRIPOS>SUBSTRUCTURE
     1 ZINC000980108339        1 TEMP              0 ****  ****    0 ROOT


##########                                Name:    ZINC000805177769
##########                DOCK_Rotatable_Bonds:                  10
##########                         Heavy_Atoms:                  30
##########                    Molecular_Weight:             417.548
##########                DOCK_Rotatable_Bonds:                  10
##########                       Formal_Charge:           0.0199995
##########                     HBond_Acceptors:                   7
##########                        HBond_Donors:                   1
##########                         Heavy_Atoms:                  30
##########                          Grid_Score:          -32.909336
##########                     Grid_vdw_energy:          -31.204102
##########                      Grid_es_energy:           -1.705236
##########           Internal_energy_repulsive:           35.355927

@<TRIPOS>MOLECULE
ZINC000805177769
 65 66 1 0 0
SMALL
USER_CHARGES


@<TRIPOS>ATOM
      1 C1        -10.0767   -4.4100   57.5407 C.3     1  ZINC000805177769   -0.1200
      2 C2        -11.4211   -3.7896   57.8215 C.ar    1  ZINC000805177769   -0.0800
      3 C3        -11.5064   -2.6433   58.5888 C.ar    1  ZINC000805177769   -0.1200
      4 C4        -12.7398   -2.0741   58.8465 C.ar    1  ZINC000805177769   -0.1100
      5 C5        -13.8874   -2.6513   58.3364 C.ar    1  ZINC000805177769   -0.0900
      6 C6        -15.2318   -2.0312   58.6176 C.3     1  ZINC000805177769   -0.0900
      7 C7        -15.7531   -2.5334   59.9656 C.3     1  ZINC000805177769    0.1500
      8 H8        -15.0955   -3.3179   60.3401 H       1  ZINC000805177769    0.1000
      9 C9        -17.1660   -3.0933   59.7895 C.3     1  ZINC000805177769   -0.1700
     10 N10       -15.7831   -1.4239   60.9217 N.am    1  ZINC000805177769   -0.6900
     11 C11       -15.5880   -1.6597   62.2342 C.2     1  ZINC000805177769    0.5100
     12 O12       -15.3889   -2.7915   62.6242 O.2     1  ZINC000805177769   -0.5100
     13 C13       -15.6169   -0.5275   63.2093 C.2     1  ZINC000805177769    0.5200
     14 O14       -16.5855   -0.3651   63.9220 O.2     1  ZINC000805177769   -0.5200
     15 N15       -14.5670    0.3131   63.2970 N.am    1  ZINC000805177769   -0.5900
     16 C16       -14.4635    1.4625   64.2079 C.3     1  ZINC000805177769    0.1100
     17 C17       -13.0817    2.1089   63.9746 C.3     1  ZINC000805177769   -0.1500
     18 C18       -12.2582    0.9524   63.3488 C.3     1  ZINC000805177769    0.1500
     19 H19       -11.8640    0.2913   64.1207 H       1  ZINC000805177769    0.1200
     20 N20       -11.1789    1.4727   62.5057 N.am    1  ZINC000805177769   -0.5900
     21 C21       -11.2243    1.2779   61.0544 C.3     1  ZINC000805177769    0.0800
     22 C22       -10.1442    2.1304   63.0652 C.2     1  ZINC000805177769    0.6600
     23 O23        -9.2481    2.5605   62.3662 O.2     1  ZINC000805177769   -0.5600
     24 O24       -10.1031    2.3106   64.3989 O.3     1  ZINC000805177769   -0.3600
     25 C25        -8.9472    1.7813   65.1003 C.3     1  ZINC000805177769    0.1400
     26 C26        -7.8162    2.8114   65.0698 C.3     1  ZINC000805177769   -0.1800
     27 C27        -9.3249    1.4815   66.5523 C.3     1  ZINC000805177769   -0.1400
     28 C28        -8.4823    0.4933   64.4179 C.3     1  ZINC000805177769   -0.1800
     29 C29       -13.3298    0.2287   62.4998 C.3     1  ZINC000805177769    0.0900
     30 C30       -13.8019   -3.7972   57.5677 C.ar    1  ZINC000805177769   -0.0800
     31 C31       -15.0531   -4.4263   57.0112 C.3     1  ZINC000805177769   -0.1200
     32 C32       -12.5686   -4.3641   57.3069 C.ar    1  ZINC000805177769   -0.1200
     33 H33        -9.6626   -3.9821   56.6277 H       1  ZINC000805177769    0.0700
     34 H34        -9.4029   -4.2098   58.3738 H       1  ZINC000805177769    0.0700
     35 H35       -10.1921   -5.4869   57.4174 H       1  ZINC000805177769    0.0700
     36 H36       -10.6097   -2.1922   58.9874 H       1  ZINC000805177769    0.1200
     37 H37       -12.8065   -1.1787   59.4467 H       1  ZINC000805177769    0.1200
     38 H38       -15.1323   -0.9462   58.6480 H       1  ZINC000805177769    0.0800
     39 H39       -15.9324   -2.3099   57.8304 H       1  ZINC000805177769    0.0900
     40 H40       -17.8236   -2.3088   59.4150 H       1  ZINC000805177769    0.0600
     41 H41       -17.1436   -3.9189   59.0781 H       1  ZINC000805177769    0.0700
     42 H42       -17.5374   -3.4511   60.7498 H       1  ZINC000805177769    0.0600
     43 H43       -15.9435   -0.5193   60.6101 H       1  ZINC000805177769    0.4100
     44 H44       -15.2516    2.1825   63.9874 H       1  ZINC000805177769    0.0900
     45 H45       -14.5452    1.1251   65.2411 H       1  ZINC000805177769    0.0900
     46 H46       -13.1598    2.9461   63.2809 H       1  ZINC000805177769    0.0900
     47 H47       -12.6413    2.4289   64.9189 H       1  ZINC000805177769    0.0900
     48 H48       -11.7439    2.1168   60.5913 H       1  ZINC000805177769    0.0600
     49 H49       -10.2085    1.2193   60.6637 H       1  ZINC000805177769    0.0800
     50 H50       -11.7546    0.3527   60.8284 H       1  ZINC000805177769    0.0800
     51 H51        -8.1474    3.7291   65.5559 H       1  ZINC000805177769    0.0600
     52 H52        -6.9485    2.4140   65.5963 H       1  ZINC000805177769    0.0700
     53 H53        -7.5472    3.0250   64.0353 H       1  ZINC000805177769    0.0900
     54 H54       -10.1306    0.7477   66.5741 H       1  ZINC000805177769    0.0700
     55 H55        -8.4572    1.0842   67.0788 H       1  ZINC000805177769    0.0800
     56 H56        -9.6561    2.3993   67.0385 H       1  ZINC000805177769    0.0700
     57 H57        -8.2131    0.7068   63.3835 H       1  ZINC000805177769    0.0900
     58 H58        -7.6146    0.0959   64.9445 H       1  ZINC000805177769    0.0700
     59 H59        -9.2880   -0.2406   64.4396 H       1  ZINC000805177769    0.0600
     60 H60       -13.0479   -0.8119   62.3399 H       1  ZINC000805177769    0.0900
     61 H61       -13.4645    0.7371   61.5451 H       1  ZINC000805177769    0.0800
     62 H62       -15.2669   -4.0031   56.0296 H       1  ZINC000805177769    0.0700
     63 H63       -14.9085   -5.5028   56.9190 H       1  ZINC000805177769    0.0700
     64 H64       -15.8889   -4.2282   57.6821 H       1  ZINC000805177769    0.0700
     65 H65       -12.5017   -5.2593   56.7065 H       1  ZINC000805177769    0.1200
@<TRIPOS>BOND
     1     1     2    1
     2     1    33    1
     3     1    34    1
     4     1    35    1
     5     2    32   ar
     6     2     3   ar
     7     3     4   ar
     8     3    36    1
     9     4     5   ar
    10     4    37    1
    11     5     6    1
    12     5    30   ar
    13     6     7    1
    14     6    38    1
    15     6    39    1
    16     7     8    1
    17     7     9    1
    18     7    10    1
    19     9    40    1
    20     9    41    1
    21     9    42    1
    22    10    11   am
    23    10    43    1
    24    11    12    2
    25    11    13    1
    26    13    14    2
    27    13    15   am
    28    15    29    1
    29    15    16    1
    30    16    17    1
    31    16    44    1
    32    16    45    1
    33    17    18    1
    34    17    46    1
    35    17    47    1
    36    18    19    1
    37    18    20    1
    38    18    29    1
    39    20    21    1
    40    20    22   am
    41    21    48    1
    42    21    49    1
    43    21    50    1
    44    22    23    2
    45    22    24    1
    46    24    25    1
    47    25    26    1
    48    25    27    1
    49    25    28    1
    50    26    51    1
    51    26    52    1
    52    26    53    1
    53    27    54    1
    54    27    55    1
    55    27    56    1
    56    28    57    1
    57    28    58    1
    58    28    59    1
    59    29    60    1
    60    29    61    1
    61    30    31    1
    62    30    32   ar
    63    31    62    1
    64    31    63    1
    65    31    64    1
    66    32    65    1
@<TRIPOS>SUBSTRUCTURE
     1 ZINC000805177769        1 TEMP              0 ****  ****    0 ROOT


##########                                Name:    ZINC000929592477
##########                DOCK_Rotatable_Bonds:                   7
##########                         Heavy_Atoms:                  28
##########                    Molecular_Weight:             399.517
##########                DOCK_Rotatable_Bonds:                   7
##########                       Formal_Charge:         -8.9407e-08
##########                     HBond_Acceptors:                   8
##########                        HBond_Donors:                   3
##########                         Heavy_Atoms:                  28
##########                          Grid_Score:          -32.907764
##########                     Grid_vdw_energy:          -31.174070
##########                      Grid_es_energy:           -1.733694
##########           Internal_energy_repulsive:           15.309715

@<TRIPOS>MOLECULE
ZINC000929592477
 53 56 1 0 0
SMALL
USER_CHARGES


@<TRIPOS>ATOM
      1 O1         -7.3564    2.1576   50.6177 O.2     1  ZINC000929592477   -0.5700
      2 C2         -7.1686    3.3513   50.7534 C.2     1  ZINC000929592477    0.7100
      3 N3         -8.1301    4.2287   50.4038 N.am    1  ZINC000929592477   -0.6800
      4 C4         -9.3445    3.7654   49.8784 C.ar    1  ZINC000929592477    0.1600
      5 C5         -9.6125    3.9046   48.5231 C.ar    1  ZINC000929592477   -0.1300
      6 C6        -10.8084    3.4490   48.0054 C.ar    1  ZINC000929592477   -0.0800
      7 C7        -11.7437    2.8506   48.8406 C.ar    1  ZINC000929592477   -0.1000
      8 S8        -13.2700    2.2682   48.1804 S.3     1  ZINC000929592477   -0.1100
      9 C9        -13.2296    2.8680   46.4689 C.3     1  ZINC000929592477   -0.0800
     10 C10       -14.4019    2.2656   45.6555 C.3     1  ZINC000929592477   -0.1200
     11 C11       -14.5815    3.2881   44.5060 C.3     1  ZINC000929592477   -0.1200
     12 C12       -14.3402    4.6565   45.1759 C.3     1  ZINC000929592477   -0.1200
     13 C13       -13.4805    4.3895   46.4240 C.3     1  ZINC000929592477   -0.1000
     14 C14       -11.4749    2.7110   50.1966 C.ar    1  ZINC000929592477   -0.1200
     15 C15       -10.2765    3.1623   50.7125 C.ar    1  ZINC000929592477   -0.1000
     16 N16        -6.0012    3.7967   51.2585 N.am    1  ZINC000929592477   -0.7300
     17 C17        -4.9561    2.8430   51.6385 C.3     1  ZINC000929592477    0.1500
     18 H18        -5.3471    2.1020   52.3356 H       1  ZINC000929592477    0.1200
     19 C19        -3.7354    3.5808   52.2493 C.3     1  ZINC000929592477   -0.1400
     20 C20        -2.9673    4.0174   50.9769 C.3     1  ZINC000929592477    0.1100
     21 N21        -3.1392    2.9004   50.0303 N.pl3   1  ZINC000929592477   -0.6000
     22 C22        -2.2951    2.5979   48.9814 C.2     1  ZINC000929592477    0.4600
     23 C23        -0.9675    2.9905   49.0193 C.2     1  ZINC000929592477   -0.4000
     24 C24        -0.1436    2.6633   47.9336 C.2     1  ZINC000929592477    0.5300
     25 O25         1.0329    2.9892   47.9251 O.2     1  ZINC000929592477   -0.5500
     26 N26        -0.6756    1.9811   46.8979 N.am    1  ZINC000929592477   -0.6400
     27 C27        -1.9754    1.6244   46.9144 C.2     1  ZINC000929592477    0.4100
     28 N28        -2.7538    1.9165   47.9198 N.2     1  ZINC000929592477   -0.5700
     29 C29        -4.3618    2.1579   50.3898 C.3     1  ZINC000929592477    0.1100
     30 H30        -7.9819    5.1807   50.5157 H       1  ZINC000929592477    0.4100
     31 H31        -8.8856    4.3698   47.8740 H       1  ZINC000929592477    0.1300
     32 H32       -11.0171    3.5579   46.9514 H       1  ZINC000929592477    0.1300
     33 H33       -12.2747    2.6250   46.0029 H       1  ZINC000929592477    0.1000
     34 H34       -14.1351    1.2847   45.2619 H       1  ZINC000929592477    0.0700
     35 H35       -15.3042    2.2062   46.2642 H       1  ZINC000929592477    0.0800
     36 H36       -13.8460    3.1125   43.7210 H       1  ZINC000929592477    0.0700
     37 H37       -15.5924    3.2341   44.1020 H       1  ZINC000929592477    0.0700
     38 H38       -13.8094    5.3187   44.4918 H       1  ZINC000929592477    0.0700
     39 H39       -15.2911    5.1031   45.4661 H       1  ZINC000929592477    0.0700
     40 H40       -14.0143    4.7065   47.3198 H       1  ZINC000929592477    0.0700
     41 H41       -12.5328    4.9220   46.3454 H       1  ZINC000929592477    0.0800
     42 H42       -12.2016    2.2459   50.8462 H       1  ZINC000929592477    0.1300
     43 H43       -10.0673    3.0536   51.7664 H       1  ZINC000929592477    0.1400
     44 H44        -5.8529    4.7488   51.3703 H       1  ZINC000929592477    0.4000
     45 H45        -4.0529    4.4466   52.8304 H       1  ZINC000929592477    0.0900
     46 H46        -3.1336    2.9043   52.8561 H       1  ZINC000929592477    0.0900
     47 H47        -3.3989    4.9310   50.5681 H       1  ZINC000929592477    0.0700
     48 H48        -1.9112    4.1640   51.2029 H       1  ZINC000929592477    0.0800
     49 H49        -0.5764    3.5360   49.8653 H       1  ZINC000929592477    0.1500
     50 H50        -0.1202    1.7466   46.1380 H       1  ZINC000929592477    0.4200
     51 H51        -2.3819    1.0790   46.0755 H       1  ZINC000929592477    0.2100
     52 H52        -4.1129    1.1211   50.6159 H       1  ZINC000929592477    0.0900
     53 H53        -5.0759    2.1991   49.5674 H       1  ZINC000929592477    0.0800
@<TRIPOS>BOND
     1     1     2    2
     2     2     3   am
     3     2    16   am
     4     3     4    1
     5     3    30    1
     6     4    15   ar
     7     4     5   ar
     8     5     6   ar
     9     5    31    1
    10     6     7   ar
    11     6    32    1
    12     7     8    1
    13     7    14   ar
    14     8     9    1
    15     9    13    1
    16     9    10    1
    17     9    33    1
    18    10    11    1
    19    10    34    1
    20    10    35    1
    21    11    12    1
    22    11    36    1
    23    11    37    1
    24    12    13    1
    25    12    38    1
    26    12    39    1
    27    13    40    1
    28    13    41    1
    29    14    15   ar
    30    14    42    1
    31    15    43    1
    32    16    17    1
    33    16    44    1
    34    17    18    1
    35    17    29    1
    36    17    19    1
    37    19    20    1
    38    19    45    1
    39    19    46    1
    40    20    21    1
    41    20    47    1
    42    20    48    1
    43    21    22    1
    44    21    29    1
    45    22    28    1
    46    22    23    2
    47    23    24    1
    48    23    49    1
    49    24    25    2
    50    24    26   am
    51    26    27    1
    52    26    50    1
    53    27    28    2
    54    27    51    1
    55    29    52    1
    56    29    53    1
@<TRIPOS>SUBSTRUCTURE
     1 ZINC000929592477        1 TEMP              0 ****  ****    0 ROOT


##########                                Name:    ZINC000432253027
##########                DOCK_Rotatable_Bonds:                   8
##########                         Heavy_Atoms:                  26
##########                    Molecular_Weight:             401.436
##########                DOCK_Rotatable_Bonds:                   8
##########                       Formal_Charge:         1.19209e-07
##########                     HBond_Acceptors:                  11
##########                        HBond_Donors:                   0
##########                         Heavy_Atoms:                  26
##########                          Grid_Score:          -32.866386
##########                     Grid_vdw_energy:          -32.434296
##########                      Grid_es_energy:           -0.432089
##########           Internal_energy_repulsive:            6.940235

@<TRIPOS>MOLECULE
ZINC000432253027
 40 42 1 0 0
SMALL
USER_CHARGES


@<TRIPOS>ATOM
      1 C1          0.1089    3.0544   45.5524 C.3     1  ZINC000432253027    0.0300
      2 O2         -0.5432    2.2736   46.5562 O.3     1  ZINC000432253027   -0.3100
      3 C3          0.2437    1.7209   47.5153 C.ar    1  ZINC000432253027    0.1500
      4 C4          1.2011    0.7804   47.1723 C.ar    1  ZINC000432253027   -0.2100
      5 C5          2.0012    0.2181   48.1494 C.ar    1  ZINC000432253027   -0.0600
      6 C6          1.8526    0.5896   49.4741 C.ar    1  ZINC000432253027   -0.1600
      7 C7          0.9035    1.5250   49.8318 C.ar    1  ZINC000432253027   -0.0300
      8 C8          0.0943    2.1037   48.8541 C.ar    1  ZINC000432253027   -0.0600
      9 C9         -0.9241    3.1061   49.2306 C.2     1  ZINC000432253027    0.1200
     10 N10        -2.0522    2.8495   49.8291 N.2     1  ZINC000432253027   -0.4600
     11 C11        -2.8368    3.8712   50.0870 C.2     1  ZINC000432253027    0.0800
     12 C12        -4.1670    3.7049   50.7754 C.3     1  ZINC000432253027   -0.0200
     13 S13        -4.8163    2.0440   50.4434 S.3     1  ZINC000432253027   -0.1700
     14 C14        -6.4926    2.1156   51.1330 C.3     1  ZINC000432253027   -0.0300
     15 C15        -6.9477    0.7248   51.4927 C.2     1  ZINC000432253027    0.2100
     16 N16        -6.4055   -0.4021   51.1002 N.2     1  ZINC000432253027   -0.2700
     17 N17        -7.0793   -1.3699   51.6192 N.2     1  ZINC000432253027   -0.0500
     18 N18        -8.0373   -0.8897   52.3326 N.2     1  ZINC000432253027   -0.0700
     19 N19        -7.9864    0.3987   52.2843 N.pl3   1  ZINC000432253027   -0.3100
     20 C20        -8.8943    1.3312   52.9567 C.3     1  ZINC000432253027    0.0700
     21 C21       -10.2865    0.7047   53.0567 C.3     1  ZINC000432253027    0.4300
     22 F22       -10.2164   -0.4690   53.8148 F       1  ZINC000432253027   -0.1500
     23 F23       -11.1606    1.6065   53.6732 F       1  ZINC000432253027   -0.1700
     24 F24       -10.7557    0.4036   51.7735 F       1  ZINC000432253027   -0.1700
     25 C25        -2.3819    5.0674   49.7013 C.2     1  ZINC000432253027   -0.2500
     26 S26        -0.8042    4.8411   48.9491 S.3     1  ZINC000432253027    0.1600
     27 H27        -0.6325    3.4362   44.8505 H       1  ZINC000432253027    0.1000
     28 H28         0.6284    3.8896   46.0223 H       1  ZINC000432253027    0.0600
     29 H29         0.8281    2.4329   45.0190 H       1  ZINC000432253027    0.0600
     30 H30         1.3225    0.4859   46.1404 H       1  ZINC000432253027    0.1400
     31 H31         2.7459   -0.5153   47.8776 H       1  ZINC000432253027    0.1300
     32 H32         2.4819    0.1453   50.2311 H       1  ZINC000432253027    0.1300
     33 H33         0.7904    1.8121   50.8669 H       1  ZINC000432253027    0.1400
     34 H34        -4.0391    3.8370   51.8498 H       1  ZINC000432253027    0.1000
     35 H35        -4.8670    4.4506   50.3985 H       1  ZINC000432253027    0.1100
     36 H36        -6.4916    2.7401   52.0263 H       1  ZINC000432253027    0.1100
     37 H37        -7.1717    2.5403   50.3936 H       1  ZINC000432253027    0.1300
     38 H38        -8.5195    1.5452   53.9576 H       1  ZINC000432253027    0.1500
     39 H39        -8.9529    2.2573   52.3848 H       1  ZINC000432253027    0.1600
     40 H40        -2.8916    6.0106   49.8317 H       1  ZINC000432253027    0.1800
@<TRIPOS>BOND
     1     1     2    1
     2     1    27    1
     3     1    28    1
     4     1    29    1
     5     2     3    1
     6     3     8   ar
     7     3     4   ar
     8     4     5   ar
     9     4    30    1
    10     5     6   ar
    11     5    31    1
    12     6     7   ar
    13     6    32    1
    14     7     8   ar
    15     7    33    1
    16     8     9    1
    17     9    26    1
    18     9    10    2
    19    10    11    1
    20    11    12    1
    21    11    25    2
    22    12    13    1
    23    12    34    1
    24    12    35    1
    25    13    14    1
    26    14    15    1
    27    14    36    1
    28    14    37    1
    29    15    19    1
    30    15    16    2
    31    16    17    1
    32    17    18    2
    33    18    19    1
    34    19    20    1
    35    20    21    1
    36    20    38    1
    37    20    39    1
    38    21    22    1
    39    21    23    1
    40    21    24    1
    41    25    26    1
    42    25    40    1
@<TRIPOS>SUBSTRUCTURE
     1 ZINC000432253027        1 TEMP              0 ****  ****    0 ROOT


##########                                Name:    ZINC000740843182
##########                DOCK_Rotatable_Bonds:                  10
##########                         Heavy_Atoms:                  24
##########                    Molecular_Weight:              419.34
##########                DOCK_Rotatable_Bonds:                  10
##########                       Formal_Charge:          0.00999957
##########                     HBond_Acceptors:                   7
##########                        HBond_Donors:                   3
##########                         Heavy_Atoms:                  24
##########                          Grid_Score:          -32.856438
##########                     Grid_vdw_energy:          -30.257942
##########                      Grid_es_energy:           -2.598496
##########           Internal_energy_repulsive:           11.000772

@<TRIPOS>MOLECULE
ZINC000740843182
 47 48 1 0 0
SMALL
USER_CHARGES


@<TRIPOS>ATOM
      1 C1         -2.3125    4.6578   55.5130 C.3     1  ZINC000740843182   -0.1500
      2 C2         -1.1977    3.6833   55.1273 C.3     1  ZINC000740843182   -0.1000
      3 H3         -1.6309    2.7122   54.8878 H       1  ZINC000740843182    0.0900
      4 C4         -0.4486    4.2226   53.9071 C.3     1  ZINC000740843182    0.1200
      5 N5         -0.8495    3.4699   52.7159 N.am    1  ZINC000740843182   -0.7200
      6 C6         -1.0752    4.1160   51.5548 C.2     1  ZINC000740843182    0.5500
      7 O7         -0.9477    5.3234   51.4964 O.2     1  ZINC000740843182   -0.5000
      8 C8         -1.4779    3.3563   50.3527 C.ar    1  ZINC000740843182   -0.1300
      9 C9         -0.5140    2.9272   49.4391 C.ar    1  ZINC000740843182    0.0200
     10 C10        -0.8966    2.2181   48.3193 C.ar    1  ZINC000740843182   -0.6800
     11 S11         0.3191    1.6757   47.1649 S.o2    1  ZINC000740843182    2.7000
     12 O12        -0.1055    0.4002   46.7046 O.2     1  ZINC000740843182   -0.9400
     13 O13         0.5654    2.7730   46.2963 O.2     1  ZINC000740843182   -0.9500
     14 N14         1.7207    1.4249   48.0106 N.am    1  ZINC000740843182   -1.0900
     15 C15         1.7539    0.4455   49.0996 C.3     1  ZINC000740843182    0.0800
     16 C16         2.1253   -0.9952   48.7430 C.3     1  ZINC000740843182   -0.1800
     17 C17         3.1188   -0.1150   49.5042 C.3     1  ZINC000740843182   -0.1900
     18 C18        -2.2325    1.9314   48.1004 C.ar    1  ZINC000740843182    0.0100
     19 C19        -3.1937    2.3532   49.0012 C.ar    1  ZINC000740843182   -0.1200
     20 C20        -2.8246    3.0595   50.1287 C.ar    1  ZINC000740843182    0.0100
     21 Br21       -4.1397    3.6357   51.3593 Br      1  ZINC000740843182    0.0100
     22 C22        -0.2242    3.5329   56.2980 C.3     1  ZINC000740843182   -0.1400
     23 C23        -0.8420    2.6226   57.3613 C.3     1  ZINC000740843182    0.1000
     24 H24        -1.8167    3.0138   57.6527 H       1  ZINC000740843182    0.1000
     25 C25         0.0746    2.5731   58.5853 C.3     1  ZINC000740843182   -0.1900
     26 O26        -0.9972    1.3056   56.8289 O.3     1  ZINC000740843182   -0.5600
     27 H27        -2.8462    4.2736   56.3822 H       1  ZINC000740843182    0.0600
     28 H28        -1.8794    5.6289   55.7524 H       1  ZINC000740843182    0.0600
     29 H29        -3.0060    4.7650   54.6789 H       1  ZINC000740843182    0.0500
     30 H30        -0.6899    5.2766   53.7692 H       1  ZINC000740843182    0.0700
     31 H31         0.6248    4.1129   54.0620 H       1  ZINC000740843182    0.0700
     32 H32        -0.9524    2.5066   52.7629 H       1  ZINC000740843182    0.4000
     33 H33         0.5291    3.1500   49.6083 H       1  ZINC000740843182    0.1500
     34 H34         2.5196    1.9264   47.7848 H       1  ZINC000740843182    0.4200
     35 H35         1.0171    0.5951   49.8889 H       1  ZINC000740843182    0.1400
     36 H36         1.6329   -1.7939   49.2976 H       1  ZINC000740843182    0.1100
     37 H37         2.3452   -1.2144   47.6982 H       1  ZINC000740843182    0.1000
     38 H38         3.9920    0.2448   48.9602 H       1  ZINC000740843182    0.1000
     39 H39         3.2798   -0.3347   50.5597 H       1  ZINC000740843182    0.1100
     40 H40        -2.5259    1.3759   47.2220 H       1  ZINC000740843182    0.1600
     41 H41        -4.2346    2.1261   48.8244 H       1  ZINC000740843182    0.1500
     42 H42         0.7079    3.0946   55.9414 H       1  ZINC000740843182    0.0700
     43 H43        -0.0227    4.5127   56.7311 H       1  ZINC000740843182    0.0800
     44 H44         0.1929    3.5777   58.9914 H       1  ZINC000740843182    0.0700
     45 H45        -0.3655    1.9245   59.3428 H       1  ZINC000740843182    0.0600
     46 H46         1.0493    2.1819   58.2938 H       1  ZINC000740843182    0.0600
     47 H47        -1.3959    0.6764   57.4457 H       1  ZINC000740843182    0.3700
@<TRIPOS>BOND
     1     1     2    1
     2     1    27    1
     3     1    28    1
     4     1    29    1
     5     2     3    1
     6     2     4    1
     7     2    22    1
     8     4     5    1
     9     4    30    1
    10     4    31    1
    11     5     6   am
    12     5    32    1
    13     6     7    2
    14     6     8    1
    15     8    20   ar
    16     8     9   ar
    17     9    10   ar
    18     9    33    1
    19    10    11    1
    20    10    18   ar
    21    11    12    2
    22    11    13    2
    23    11    14   am
    24    14    15    1
    25    14    34    1
    26    15    17    1
    27    15    16    1
    28    15    35    1
    29    16    17    1
    30    16    36    1
    31    16    37    1
    32    17    38    1
    33    17    39    1
    34    18    19   ar
    35    18    40    1
    36    19    20   ar
    37    19    41    1
    38    20    21    1
    39    22    23    1
    40    22    42    1
    41    22    43    1
    42    23    24    1
    43    23    25    1
    44    23    26    1
    45    25    44    1
    46    25    45    1
    47    25    46    1
    48    26    47    1
@<TRIPOS>SUBSTRUCTURE
     1 ZINC000740843182        1 TEMP              0 ****  ****    0 ROOT


##########                                Name:    ZINC000767361237
##########                DOCK_Rotatable_Bonds:                  10
##########                         Heavy_Atoms:                  30
##########                    Molecular_Weight:             409.439
##########                DOCK_Rotatable_Bonds:                  10
##########                       Formal_Charge:          -0.0300005
##########                     HBond_Acceptors:                   7
##########                        HBond_Donors:                   1
##########                         Heavy_Atoms:                  30
##########                          Grid_Score:          -32.847187
##########                     Grid_vdw_energy:          -33.155396
##########                      Grid_es_energy:            0.308210
##########           Internal_energy_repulsive:           14.446404

@<TRIPOS>MOLECULE
ZINC000767361237
 53 55 1 0 0
SMALL
USER_CHARGES


@<TRIPOS>ATOM
      1 C1         -8.7502   -1.4777   59.4963 C.3     1  ZINC000767361237   -0.1200
      2 C2         -9.8518   -1.4868   58.4679 C.ar    1  ZINC000767361237   -0.0900
      3 C3        -10.1768   -2.6604   57.8137 C.ar    1  ZINC000767361237   -0.1200
      4 C4        -11.1874   -2.6687   56.8704 C.ar    1  ZINC000767361237   -0.1100
      5 C5        -11.8731   -1.5037   56.5817 C.ar    1  ZINC000767361237   -0.0800
      6 C6        -12.9743   -1.5128   55.5531 C.3     1  ZINC000767361237   -0.0800
      7 H7        -13.5577   -0.5960   55.6373 H       1  ZINC000767361237    0.0900
      8 C8        -13.8840   -2.7198   55.7906 C.3     1  ZINC000767361237   -0.1500
      9 C9        -12.3638   -1.6020   54.1530 C.3     1  ZINC000767361237    0.1300
     10 H10       -13.1611   -1.6373   53.4105 H       1  ZINC000767361237    0.1400
     11 O11       -11.5686   -2.7851   54.0546 O.3     1  ZINC000767361237   -0.5200
     12 C12       -11.4989   -0.3932   53.9043 C.2     1  ZINC000767361237    0.4300
     13 O13       -11.8985    0.7073   54.2027 O.2     1  ZINC000767361237   -0.5000
     14 O14       -10.2845   -0.5392   53.3512 O.3     1  ZINC000767361237   -0.3300
     15 C15        -9.5703    0.6750   52.9991 C.3     1  ZINC000767361237    0.0100
     16 C16        -8.1607    0.3290   52.5938 C.2     1  ZINC000767361237    0.3700
     17 O17        -7.9286   -0.7286   52.0590 O.2     1  ZINC000767361237   -0.4200
     18 C18        -7.0408    1.3028   52.8557 C.3     1  ZINC000767361237   -0.1800
     19 C19        -7.1718    2.4974   51.9088 C.3     1  ZINC000767361237    0.1200
     20 N20        -5.8727    2.7762   51.2918 N.am    1  ZINC000767361237   -0.5800
     21 C21        -4.9534    3.6166   51.8001 C.2     1  ZINC000767361237    0.5700
     22 O22        -5.0671    4.2544   52.8273 O.2     1  ZINC000767361237   -0.4600
     23 C23        -3.7813    3.6330   50.8996 C.ar    1  ZINC000767361237   -0.1400
     24 C24        -2.5637    4.2938   50.9083 C.ar    1  ZINC000767361237   -0.0400
     25 C25        -1.6585    4.0802   49.8799 C.ar    1  ZINC000767361237   -0.0900
     26 C26        -1.9628    3.2134   48.8476 C.ar    1  ZINC000767361237   -0.0900
     27 C27        -3.1774    2.5452   48.8257 C.ar    1  ZINC000767361237   -0.0400
     28 C28        -4.0917    2.7487   49.8464 C.ar    1  ZINC000767361237   -0.1400
     29 C29        -5.4397    2.2213   50.1454 C.2     1  ZINC000767361237    0.5700
     30 O30        -6.0545    1.4220   49.4684 O.2     1  ZINC000767361237   -0.4600
     31 C31       -11.5490   -0.3305   57.2370 C.ar    1  ZINC000767361237   -0.1100
     32 C32       -10.5410   -0.3229   58.1830 C.ar    1  ZINC000767361237   -0.1200
     33 H33        -9.1678   -1.7003   60.4781 H       1  ZINC000767361237    0.0700
     34 H34        -8.0062   -2.2314   59.2385 H       1  ZINC000767361237    0.0700
     35 H35        -8.2797   -0.4946   59.5160 H       1  ZINC000767361237    0.0700
     36 H36        -9.6411   -3.5706   58.0393 H       1  ZINC000767361237    0.1200
     37 H37       -11.4408   -3.5855   56.3588 H       1  ZINC000767361237    0.1200
     38 H38       -14.6806   -2.7264   55.0466 H       1  ZINC000767361237    0.0800
     39 H39       -13.3006   -3.6367   55.7063 H       1  ZINC000767361237    0.0700
     40 H40       -14.3190   -2.6563   56.7881 H       1  ZINC000767361237    0.0600
     41 H41       -12.0774   -3.6061   54.1019 H       1  ZINC000767361237    0.3900
     42 H42       -10.0769    1.1668   52.1687 H       1  ZINC000767361237    0.1100
     43 H43        -9.5471    1.3450   53.8586 H       1  ZINC000767361237    0.1100
     44 H44        -7.0948    1.6496   53.8876 H       1  ZINC000767361237    0.1100
     45 H45        -6.0835    0.8093   52.6878 H       1  ZINC000767361237    0.1100
     46 H46        -7.9010    2.2671   51.1320 H       1  ZINC000767361237    0.1100
     47 H47        -7.5026    3.3713   52.4700 H       1  ZINC000767361237    0.1100
     48 H48        -2.3208    4.9725   51.7124 H       1  ZINC000767361237    0.1400
     49 H49        -0.7092    4.5950   49.8857 H       1  ZINC000767361237    0.1400
     50 H50        -1.2496    3.0556   48.0521 H       1  ZINC000767361237    0.1400
     51 H51        -3.4097    1.8687   48.0166 H       1  ZINC000767361237    0.1400
     52 H52       -12.0850    0.5796   57.0116 H       1  ZINC000767361237    0.1200
     53 H53       -10.2878    0.5937   58.6949 H       1  ZINC000767361237    0.1200
@<TRIPOS>BOND
     1     1     2    1
     2     1    33    1
     3     1    34    1
     4     1    35    1
     5     2    32   ar
     6     2     3   ar
     7     3     4   ar
     8     3    36    1
     9     4     5   ar
    10     4    37    1
    11     5     6    1
    12     5    31   ar
    13     6     7    1
    14     6     8    1
    15     6     9    1
    16     8    38    1
    17     8    39    1
    18     8    40    1
    19     9    10    1
    20     9    11    1
    21     9    12    1
    22    11    41    1
    23    12    13    2
    24    12    14    1
    25    14    15    1
    26    15    16    1
    27    15    42    1
    28    15    43    1
    29    16    17    2
    30    16    18    1
    31    18    19    1
    32    18    44    1
    33    18    45    1
    34    19    20    1
    35    19    46    1
    36    19    47    1
    37    20    29   am
    38    20    21   am
    39    21    22    2
    40    21    23    1
    41    23    28   ar
    42    23    24   ar
    43    24    25   ar
    44    24    48    1
    45    25    26   ar
    46    25    49    1
    47    26    27   ar
    48    26    50    1
    49    27    28   ar
    50    27    51    1
    51    28    29    1
    52    29    30    2
    53    31    32   ar
    54    31    52    1
    55    32    53    1
@<TRIPOS>SUBSTRUCTURE
     1 ZINC000767361237        1 TEMP              0 ****  ****    0 ROOT


##########                                Name:    ZINC000655982608
##########                DOCK_Rotatable_Bonds:                   5
##########                         Heavy_Atoms:                  29
##########                    Molecular_Weight:             388.469
##########                DOCK_Rotatable_Bonds:                   5
##########                       Formal_Charge:          -0.0200006
##########                     HBond_Acceptors:                   6
##########                        HBond_Donors:                   0
##########                         Heavy_Atoms:                  29
##########                          Grid_Score:          -32.824593
##########                     Grid_vdw_energy:          -32.910110
##########                      Grid_es_energy:            0.085517
##########           Internal_energy_repulsive:           50.560921

@<TRIPOS>MOLECULE
ZINC000655982608
 53 57 1 0 0
SMALL
USER_CHARGES


@<TRIPOS>ATOM
      1 C1          3.1687    1.9213   47.0870 C.3     1  ZINC000655982608   -0.1900
      2 C2          1.8302    1.9336   47.8282 C.3     1  ZINC000655982608    0.0800
      3 H3          1.7876    2.8009   48.4870 H       1  ZINC000655982608    0.1000
      4 C4          0.6866    2.0065   46.8144 C.3     1  ZINC000655982608   -0.0300
      5 C5         -0.6277    2.1014   47.5457 C.2     1  ZINC000655982608    0.2000
      6 N6         -0.8139    2.5575   48.7609 N.2     1  ZINC000655982608   -0.4800
      7 C7         -2.1351    2.4510   48.9890 C.2     1  ZINC000655982608    0.1700
      8 C8         -2.8570    2.8463   50.2514 C.3     1  ZINC000655982608   -0.0100
      9 H9         -2.2399    2.6517   51.1286 H       1  ZINC000655982608    0.1300
     10 C10        -3.2920    4.3292   50.1988 C.3     1  ZINC000655982608   -0.1400
     11 C11        -4.6397    4.3452   50.8860 C.2     1  ZINC000655982608    0.5200
     12 O12        -5.1954    5.3395   51.3023 O.2     1  ZINC000655982608   -0.5000
     13 N13        -5.1318    3.0969   50.9674 N.am    1  ZINC000655982608   -0.5600
     14 C14        -6.3582    2.7687   51.5557 C.ar    1  ZINC000655982608    0.1600
     15 C15        -6.7617    1.4418   51.6292 C.ar    1  ZINC000655982608   -0.1600
     16 C16        -7.9728    1.1211   52.2104 C.ar    1  ZINC000655982608   -0.0900
     17 C17        -8.7835    2.1195   52.7184 C.ar    1  ZINC000655982608   -0.1400
     18 C18        -8.3849    3.4416   52.6463 C.ar    1  ZINC000655982608   -0.0900
     19 C19        -7.1719    3.7683   52.0723 C.ar    1  ZINC000655982608   -0.1600
     20 C20        -4.2171    2.1219   50.3605 C.3     1  ZINC000655982608    0.1100
     21 N21        -2.6748    1.9449   47.9208 N.2     1  ZINC000655982608   -0.3700
     22 O22        -1.8268    1.7421   47.0775 O.3     1  ZINC000655982608    0.0900
     23 N23         1.7006    0.7065   48.6252 N.3     1  ZINC000655982608   -0.4700
     24 C24         1.6252   -0.4862   47.7536 C.3     1  ZINC000655982608    0.0300
     25 C25         2.2822   -1.5826   48.6233 C.3     1  ZINC000655982608   -0.0800
     26 C26         3.1911   -0.7867   49.5387 C.ar    1  ZINC000655982608   -0.1400
     27 C27         4.2470   -1.1699   50.3380 C.ar    1  ZINC000655982608   -0.0800
     28 C28         4.9279   -0.2266   51.0868 C.ar    1  ZINC000655982608   -0.1400
     29 C29         4.5479    1.1016   51.0318 C.ar    1  ZINC000655982608   -0.0900
     30 C30         3.4906    1.4899   50.2352 C.ar    1  ZINC000655982608   -0.1400
     31 C31         2.7977    0.5453   49.4804 C.ar    1  ZINC000655982608    0.1000
     32 H32         3.3148    2.8777   46.5852 H       1  ZINC000655982608    0.0700
     33 H33         3.9771    1.7576   47.7996 H       1  ZINC000655982608    0.0700
     34 H34         3.1676    1.1198   46.3483 H       1  ZINC000655982608    0.0700
     35 H35         0.8157    2.8860   46.1836 H       1  ZINC000655982608    0.1200
     36 H36         0.6933    1.1102   46.1941 H       1  ZINC000655982608    0.1100
     37 H37        -2.5810    4.9547   50.7389 H       1  ZINC000655982608    0.1200
     38 H38        -3.3867    4.6626   49.1654 H       1  ZINC000655982608    0.1200
     39 H39        -6.1293    0.6617   51.2319 H       1  ZINC000655982608    0.1200
     40 H40        -8.2872    0.0895   52.2679 H       1  ZINC000655982608    0.1300
     41 H41        -9.7303    1.8661   53.1722 H       1  ZINC000655982608    0.1200
     42 H42        -9.0206    4.2191   53.0434 H       1  ZINC000655982608    0.1300
     43 H43        -6.8611    4.8012   52.0163 H       1  ZINC000655982608    0.1500
     44 H44        -4.5725    1.8368   49.3704 H       1  ZINC000655982608    0.0900
     45 H45        -4.1270    1.2421   50.9976 H       1  ZINC000655982608    0.1000
     46 H46         0.5881   -0.7382   47.5321 H       1  ZINC000655982608    0.1000
     47 H47         2.1911   -0.3304   46.8352 H       1  ZINC000655982608    0.0700
     48 H48         1.5296   -2.1209   49.1994 H       1  ZINC000655982608    0.0900
     49 H49         2.8614   -2.2693   48.0061 H       1  ZINC000655982608    0.0800
     50 H50         4.5428   -2.2078   50.3801 H       1  ZINC000655982608    0.1200
     51 H51         5.7546   -0.5273   51.7134 H       1  ZINC000655982608    0.1200
     52 H52         5.0806    1.8380   51.6151 H       1  ZINC000655982608    0.1300
     53 H53         3.1984    2.5290   50.1970 H       1  ZINC000655982608    0.1200
@<TRIPOS>BOND
     1     1     2    1
     2     1    32    1
     3     1    33    1
     4     1    34    1
     5     2     3    1
     6     2     4    1
     7     2    23    1
     8     4     5    1
     9     4    35    1
    10     4    36    1
    11     5    22    1
    12     5     6    2
    13     6     7    1
    14     7     8    1
    15     7    21    2
    16     8     9    1
    17     8    20    1
    18     8    10    1
    19    10    11    1
    20    10    37    1
    21    10    38    1
    22    11    12    2
    23    11    13   am
    24    13    14    1
    25    13    20    1
    26    14    19   ar
    27    14    15   ar
    28    15    16   ar
    29    15    39    1
    30    16    17   ar
    31    16    40    1
    32    17    18   ar
    33    17    41    1
    34    18    19   ar
    35    18    42    1
    36    19    43    1
    37    20    44    1
    38    20    45    1
    39    21    22    1
    40    23    31    1
    41    23    24    1
    42    24    25    1
    43    24    46    1
    44    24    47    1
    45    25    26    1
    46    25    48    1
    47    25    49    1
    48    26    31   ar
    49    26    27   ar
    50    27    28   ar
    51    27    50    1
    52    28    29   ar
    53    28    51    1
    54    29    30   ar
    55    29    52    1
    56    30    31   ar
    57    30    53    1
@<TRIPOS>SUBSTRUCTURE
     1 ZINC000655982608        1 TEMP              0 ****  ****    0 ROOT


##########                                Name:    ZINC001039825450
##########                DOCK_Rotatable_Bonds:                   8
##########                         Heavy_Atoms:                  24
##########                    Molecular_Weight:             337.339
##########                DOCK_Rotatable_Bonds:                   8
##########                       Formal_Charge:           0.0100001
##########                     HBond_Acceptors:                  11
##########                        HBond_Donors:                   4
##########                         Heavy_Atoms:                  24
##########                          Grid_Score:          -32.806110
##########                     Grid_vdw_energy:          -30.539349
##########                      Grid_es_energy:           -2.266760
##########           Internal_energy_repulsive:            8.130388

@<TRIPOS>MOLECULE
ZINC001039825450
 43 45 1 0 0
SMALL
USER_CHARGES


@<TRIPOS>ATOM
      1 O1         -1.2843    4.0845   50.8955 O.2     1  ZINC001039825450   -0.5100
      2 C2         -2.2142    4.5825   50.2968 C.2     1  ZINC001039825450    0.5000
      3 C3         -3.5080    4.8657   51.0157 C.3     1  ZINC001039825450    0.1300
      4 N4         -4.3646    3.6782   50.9656 N.pl3   1  ZINC001039825450   -0.1500
      5 N5         -5.6499    3.7053   50.9335 N.2     1  ZINC001039825450   -0.2800
      6 C6         -6.0967    2.4705   50.8926 C.2     1  ZINC001039825450   -0.0200
      7 C7         -4.9641    1.6532   50.9019 C.2     1  ZINC001039825450   -0.0200
      8 N8         -3.9334    2.4668   50.9420 N.2     1  ZINC001039825450   -0.2800
      9 N9         -2.0885    4.8879   48.9901 N.am    1  ZINC001039825450   -0.7300
     10 C10        -0.8307    4.6126   48.2914 C.3     1  ZINC001039825450    0.1000
     11 C11        -0.8185    3.1580   47.8172 C.3     1  ZINC001039825450    0.1100
     12 O12        -2.1473    2.6353   47.7610 O.3     1  ZINC001039825450   -0.5400
     13 C13        -0.1177    3.0360   46.4382 C.3     1  ZINC001039825450   -0.1600
     14 C14         0.3880    1.5722   46.4748 C.3     1  ZINC001039825450    0.1000
     15 N15         0.7997    1.3500   47.8729 N.am    1  ZINC001039825450   -0.6100
     16 C16         1.6964    0.4353   48.2917 C.2     1  ZINC001039825450    0.5200
     17 O17         2.2411   -0.2921   47.4884 O.2     1  ZINC001039825450   -0.5100
     18 C18         2.0224    0.3160   49.7582 C.3     1  ZINC001039825450    0.1100
     19 H19         1.1466    0.5487   50.3639 H       1  ZINC001039825450    0.1200
     20 C20         3.1974    1.2420   50.1281 C.3     1  ZINC001039825450    0.1100
     21 N21         4.2368    0.3183   50.6066 N.am    1  ZINC001039825450   -0.7400
     22 C22         3.7750   -0.9372   50.5386 C.2     1  ZINC001039825450    0.7100
     23 O23         4.4313   -1.9041   50.8742 O.2     1  ZINC001039825450   -0.5800
     24 N24         2.5211   -1.0322   50.0682 N.am    1  ZINC001039825450   -0.7200
     25 C25         0.0704    2.2920   48.7345 C.3     1  ZINC001039825450    0.1200
     26 H26        -3.2985    5.1188   52.0551 H       1  ZINC001039825450    0.1400
     27 H27        -4.0163    5.7008   50.5338 H       1  ZINC001039825450    0.1400
     28 H28        -7.1283    2.1526   50.8591 H       1  ZINC001039825450    0.2000
     29 H29        -4.9404    0.5737   50.8768 H       1  ZINC001039825450    0.2000
     30 H30        -2.8309    5.2897   48.5124 H       1  ZINC001039825450    0.4000
     31 H31        -0.7402    5.2759   47.4312 H       1  ZINC001039825450    0.0900
     32 H32         0.0061    4.7806   48.9694 H       1  ZINC001039825450    0.0900
     33 H33        -2.6818    2.9963   47.0404 H       1  ZINC001039825450    0.3800
     34 H34        -0.8279    3.1838   45.6247 H       1  ZINC001039825450    0.0900
     35 H35         0.7148    3.7351   46.3599 H       1  ZINC001039825450    0.0900
     36 H36        -0.4144    0.8867   46.2021 H       1  ZINC001039825450    0.0800
     37 H37         1.2385    1.4479   45.8046 H       1  ZINC001039825450    0.0800
     38 H38         3.5450    1.7880   49.2511 H       1  ZINC001039825450    0.0900
     39 H39         2.9057    1.9328   50.9193 H       1  ZINC001039825450    0.1000
     40 H40         5.1169    0.5772   50.9215 H       1  ZINC001039825450    0.4400
     41 H41         2.0260   -1.8580   49.9505 H       1  ZINC001039825450    0.4400
     42 H42         0.7762    2.9253   49.2719 H       1  ZINC001039825450    0.0900
     43 H43        -0.5509    1.7427   49.4417 H       1  ZINC001039825450    0.0900
@<TRIPOS>BOND
     1     1     2    2
     2     2     3    1
     3     2     9   am
     4     3     4    1
     5     3    26    1
     6     3    27    1
     7     4     8    1
     8     4     5    1
     9     5     6    2
    10     6     7    1
    11     6    28    1
    12     7     8    2
    13     7    29    1
    14     9    10    1
    15     9    30    1
    16    10    11    1
    17    10    31    1
    18    10    32    1
    19    11    25    1
    20    11    12    1
    21    11    13    1
    22    12    33    1
    23    13    14    1
    24    13    34    1
    25    13    35    1
    26    14    15    1
    27    14    36    1
    28    14    37    1
    29    15    16   am
    30    15    25    1
    31    16    17    2
    32    16    18    1
    33    18    19    1
    34    18    24    1
    35    18    20    1
    36    20    21    1
    37    20    38    1
    38    20    39    1
    39    21    22   am
    40    21    40    1
    41    22    23    2
    42    22    24   am
    43    24    41    1
    44    25    42    1
    45    25    43    1
@<TRIPOS>SUBSTRUCTURE
     1 ZINC001039825450        1 TEMP              0 ****  ****    0 ROOT


##########                                Name:    ZINC000182044395
##########                DOCK_Rotatable_Bonds:                   8
##########                         Heavy_Atoms:                  28
##########                    Molecular_Weight:             398.889
##########                DOCK_Rotatable_Bonds:                   8
##########                       Formal_Charge:          -0.0399999
##########                     HBond_Acceptors:                   6
##########                        HBond_Donors:                   2
##########                         Heavy_Atoms:                  28
##########                          Grid_Score:          -32.757351
##########                     Grid_vdw_energy:          -29.473053
##########                      Grid_es_energy:           -3.284297
##########           Internal_energy_repulsive:           18.633562

@<TRIPOS>MOLECULE
ZINC000182044395
 51 53 1 0 0
SMALL
USER_CHARGES


@<TRIPOS>ATOM
      1 C1        -13.9726    3.3352   44.5037 C.3     1  ZINC000182044395   -0.1800
      2 C2        -13.1350    2.0581   44.5972 C.3     1  ZINC000182044395    0.0800
      3 N3        -13.3564    1.4231   45.8987 N.pl3   1  ZINC000182044395   -0.4800
      4 C4        -14.1741    0.3643   45.9646 C.2     1  ZINC000182044395    0.2500
      5 C5        -14.4355   -0.2902   47.1505 C.2     1  ZINC000182044395   -0.3500
      6 C6        -15.3398   -1.4504   47.1807 C.2     1  ZINC000182044395    0.5900
      7 O7        -16.1414   -1.5733   48.0874 O.2     1  ZINC000182044395   -0.5600
      8 N8        -15.2800   -2.3771   46.2039 N.am    1  ZINC000182044395   -0.7200
      9 C9        -16.1806   -3.5323   46.2340 C.3     1  ZINC000182044395    0.1100
     10 H10       -16.2812   -3.8879   47.2594 H       1  ZINC000182044395    0.0900
     11 C11       -17.5541   -3.1223   45.6992 C.3     1  ZINC000182044395   -0.1600
     12 C12       -15.6059   -4.6496   45.3608 C.3     1  ZINC000182044395    0.1100
     13 H13       -16.1415   -4.6810   44.4120 H       1  ZINC000182044395    0.1100
     14 O14       -14.2203   -4.3992   45.1176 O.3     1  ZINC000182044395   -0.5500
     15 C15       -15.7633   -5.9909   46.0799 C.3     1  ZINC000182044395   -0.1100
     16 C16       -17.0633   -6.6322   45.6678 C.ar    1  ZINC000182044395   -0.0800
     17 C17       -17.1012   -7.4765   44.5738 C.ar    1  ZINC000182044395   -0.1000
     18 C18       -18.2936   -8.0646   44.1955 C.ar    1  ZINC000182044395   -0.1200
     19 C19       -19.4480   -7.8089   44.9116 C.ar    1  ZINC000182044395   -0.1200
     20 C20       -19.4112   -6.9609   46.0026 C.ar    1  ZINC000182044395   -0.1200
     21 C21       -18.2178   -6.3759   46.3833 C.ar    1  ZINC000182044395   -0.1200
     22 C22       -13.7997    0.1948   48.3856 C.2     1  ZINC000182044395    0.4400
     23 O23       -14.0025   -0.3456   49.4587 O.2     1  ZINC000182044395   -0.4900
     24 C24       -12.9022    1.3594   48.2688 C.ar    1  ZINC000182044395   -0.1800
     25 C25       -12.2523    1.8841   49.3855 C.ar    1  ZINC000182044395   -0.0200
     26 C26       -11.4254    2.9776   49.2407 C.ar    1  ZINC000182044395   -0.0700
     27 Cl27      -10.6133    3.6369   50.6262 Cl      1  ZINC000182044395   -0.0500
     28 C28       -11.2390    3.5535   47.9911 C.ar    1  ZINC000182044395   -0.0500
     29 C29       -11.8747    3.0444   46.8799 C.ar    1  ZINC000182044395   -0.1600
     30 C30       -12.7147    1.9408   47.0032 C.ar    1  ZINC000182044395    0.1900
     31 H31       -13.6783    4.0215   45.2978 H       1  ZINC000182044395    0.0700
     32 H32       -13.8078    3.8077   43.5354 H       1  ZINC000182044395    0.0800
     33 H33       -15.0281    3.0860   44.6116 H       1  ZINC000182044395    0.0700
     34 H34       -12.0793    2.3074   44.4894 H       1  ZINC000182044395    0.1000
     35 H35       -13.4293    1.3718   43.8033 H       1  ZINC000182044395    0.1100
     36 H36       -14.6445    0.0109   45.0589 H       1  ZINC000182044395    0.1800
     37 H37       -14.6409   -2.2791   45.4809 H       1  ZINC000182044395    0.4100
     38 H38       -17.9634   -2.3263   46.3212 H       1  ZINC000182044395    0.0600
     39 H39       -17.4535   -2.7668   44.6737 H       1  ZINC000182044395    0.0600
     40 H40       -18.2241   -3.9819   45.7215 H       1  ZINC000182044395    0.0600
     41 H41       -14.0431   -3.5499   44.6905 H       1  ZINC000182044395    0.3700
     42 H42       -15.7644   -5.8275   47.1576 H       1  ZINC000182044395    0.0800
     43 H43       -14.9341   -6.6460   45.8125 H       1  ZINC000182044395    0.0800
     44 H44       -16.1992   -7.6766   44.0146 H       1  ZINC000182044395    0.1200
     45 H45       -18.3233   -8.7238   43.3406 H       1  ZINC000182044395    0.1200
     46 H46       -20.3798   -8.2683   44.6161 H       1  ZINC000182044395    0.1200
     47 H47       -20.3140   -6.7576   46.5595 H       1  ZINC000182044395    0.1200
     48 H48       -18.1883   -5.7161   47.2378 H       1  ZINC000182044395    0.1200
     49 H49       -12.3960    1.4366   50.3579 H       1  ZINC000182044395    0.1500
     50 H50       -10.5883    4.4094   47.8890 H       1  ZINC000182044395    0.1500
     51 H51       -11.7213    3.5011   45.9133 H       1  ZINC000182044395    0.1500
@<TRIPOS>BOND
     1     1     2    1
     2     1    31    1
     3     1    32    1
     4     1    33    1
     5     2     3    1
     6     2    34    1
     7     2    35    1
     8     3    30    1
     9     3     4    1
    10     4     5    2
    11     4    36    1
    12     5     6    1
    13     5    22    1
    14     6     7    2
    15     6     8   am
    16     8     9    1
    17     8    37    1
    18     9    10    1
    19     9    11    1
    20     9    12    1
    21    11    38    1
    22    11    39    1
    23    11    40    1
    24    12    13    1
    25    12    14    1
    26    12    15    1
    27    14    41    1
    28    15    16    1
    29    15    42    1
    30    15    43    1
    31    16    21   ar
    32    16    17   ar
    33    17    18   ar
    34    17    44    1
    35    18    19   ar
    36    18    45    1
    37    19    20   ar
    38    19    46    1
    39    20    21   ar
    40    20    47    1
    41    21    48    1
    42    22    23    2
    43    22    24    1
    44    24    30   ar
    45    24    25   ar
    46    25    26   ar
    47    25    49    1
    48    26    27    1
    49    26    28   ar
    50    28    29   ar
    51    28    50    1
    52    29    30   ar
    53    29    51    1
@<TRIPOS>SUBSTRUCTURE
     1 ZINC000182044395        1 TEMP              0 ****  ****    0 ROOT


##########                                Name:    ZINC001342153661
##########                DOCK_Rotatable_Bonds:                   8
##########                         Heavy_Atoms:                  29
##########                    Molecular_Weight:             395.548
##########                DOCK_Rotatable_Bonds:                   8
##########                       Formal_Charge:          -0.0400005
##########                     HBond_Acceptors:                   6
##########                        HBond_Donors:                   1
##########                         Heavy_Atoms:                  29
##########                          Grid_Score:          -32.726807
##########                     Grid_vdw_energy:          -31.683863
##########                      Grid_es_energy:           -1.042945
##########           Internal_energy_repulsive:           12.887233

@<TRIPOS>MOLECULE
ZINC001342153661
 62 65 1 0 0
SMALL
USER_CHARGES


@<TRIPOS>ATOM
      1 C1         -1.4146    3.4951   52.6980 C.2     1  ZINC001342153661   -0.1400
      2 C2         -0.8171    3.7420   51.5587 C.2     1  ZINC001342153661   -0.1600
      3 C3          0.6243    3.3482   51.3630 C.3     1  ZINC001342153661   -0.1200
      4 C4         -1.5710    4.4200   50.4438 C.3     1  ZINC001342153661    0.1500
      5 N5         -2.1575    3.4063   49.5638 N.pl3   1  ZINC001342153661   -0.4700
      6 C6         -3.4074    2.8588   49.6531 C.2     1  ZINC001342153661    0.1800
      7 C7         -4.4543    3.1868   50.6862 C.3     1  ZINC001342153661   -0.0600
      8 C8         -5.7423    2.4252   50.3669 C.3     1  ZINC001342153661    0.1600
      9 H9         -5.9324    2.4665   49.2944 H       1  ZINC001342153661    0.1000
     10 O10        -5.6029    1.0623   50.7736 O.3     1  ZINC001342153661   -0.5400
     11 C11        -6.8947    3.0548   51.1062 C.ar    1  ZINC001342153661   -0.1700
     12 C12        -8.0882    3.3179   50.4521 C.ar    1  ZINC001342153661   -0.0600
     13 C13        -9.1217    3.8977   51.1724 C.ar    1  ZINC001342153661   -0.1700
     14 C14        -8.9287    4.1919   52.5087 C.ar    1  ZINC001342153661    0.1000
     15 N15        -7.7792    3.9274   53.0986 N.ar    1  ZINC001342153661   -0.4800
     16 C16        -6.7769    3.3719   52.4463 C.ar    1  ZINC001342153661    0.1100
     17 N17        -3.5255    2.0016   48.6790 N.2     1  ZINC001342153661   -0.2700
     18 N18        -2.4438    1.9705   47.9857 N.2     1  ZINC001342153661   -0.3200
     19 C19        -1.5721    2.8168   48.4813 C.2     1  ZINC001342153661    0.3600
     20 N20        -0.2950    3.0598   48.0014 N.3     1  ZINC001342153661   -0.4500
     21 C21        -0.3371    3.8866   46.7885 C.3     1  ZINC001342153661    0.0500
     22 C22         1.0884    4.2551   46.3710 C.3     1  ZINC001342153661   -0.1200
     23 C23         1.8861    2.9742   46.1106 C.3     1  ZINC001342153661   -0.1200
     24 C24         1.8736    2.1090   47.3739 C.3     1  ZINC001342153661   -0.0800
     25 H25         2.3629    2.6451   48.1871 H       1  ZINC001342153661    0.0800
     26 C26         2.6186    0.8002   47.1038 C.3     1  ZINC001342153661   -0.0800
     27 C27         4.1222    1.0742   46.8529 C.3     1  ZINC001342153661   -0.1200
     28 C28         4.7807   -0.2824   47.2068 C.3     1  ZINC001342153661   -0.1300
     29 C29         3.9767   -0.7873   48.4227 C.3     1  ZINC001342153661   -0.1300
     30 C30         2.6020   -0.0989   48.3573 C.3     1  ZINC001342153661   -0.1200
     31 C31         0.4253    1.8027   47.7623 C.3     1  ZINC001342153661    0.0800
     32 H32        -0.8743    3.0093   53.4970 H       1  ZINC001342153661    0.1000
     33 H33        -2.4463    3.7813   52.8398 H       1  ZINC001342153661    0.1100
     34 H34         0.6763    2.3085   51.0403 H       1  ZINC001342153661    0.0700
     35 H35         1.0758    3.9872   50.6041 H       1  ZINC001342153661    0.0600
     36 H36         1.1636    3.4642   52.3032 H       1  ZINC001342153661    0.0700
     37 H37        -2.3639    5.0382   50.8649 H       1  ZINC001342153661    0.1000
     38 H38        -0.8872    5.0465   49.8713 H       1  ZINC001342153661    0.1000
     39 H39        -4.0948    2.8951   51.6731 H       1  ZINC001342153661    0.1100
     40 H40        -4.6535    4.2584   50.6743 H       1  ZINC001342153661    0.1000
     41 H41        -6.4072    0.5361   50.6677 H       1  ZINC001342153661    0.3800
     42 H42        -8.2103    3.0774   49.4063 H       1  ZINC001342153661    0.1300
     43 H43       -10.0653    4.1170   50.6949 H       1  ZINC001342153661    0.1400
     44 H44        -9.7286    4.6438   53.0766 H       1  ZINC001342153661    0.1600
     45 H45        -5.8502    3.1702   52.9632 H       1  ZINC001342153661    0.1500
     46 H46        -0.8180    3.3286   45.9850 H       1  ZINC001342153661    0.0500
     47 H47        -0.9036    4.7962   46.9884 H       1  ZINC001342153661    0.0700
     48 H48         1.0576    4.8557   45.4619 H       1  ZINC001342153661    0.0800
     49 H49         1.5653    4.8251   47.1684 H       1  ZINC001342153661    0.0700
     50 H50         1.4317    2.4232   45.2873 H       1  ZINC001342153661    0.0600
     51 H51         2.9141    3.2310   45.8551 H       1  ZINC001342153661    0.0700
     52 H52         2.1768    0.2790   46.2547 H       1  ZINC001342153661    0.0800
     53 H53         4.2994    1.3285   45.8078 H       1  ZINC001342153661    0.0700
     54 H54         4.4862    1.8635   47.5107 H       1  ZINC001342153661    0.0700
     55 H55         4.6902   -0.9793   46.3735 H       1  ZINC001342153661    0.0600
     56 H56         5.8277   -0.1400   47.4742 H       1  ZINC001342153661    0.0600
     57 H57         3.8556   -1.8691   48.3671 H       1  ZINC001342153661    0.0600
     58 H58         4.4870   -0.5152   49.3467 H       1  ZINC001342153661    0.0600
     59 H59         2.4451    0.5072   49.2496 H       1  ZINC001342153661    0.0600
     60 H60         1.8139   -0.8467   48.2700 H       1  ZINC001342153661    0.0600
     61 H61         0.4127    1.1987   48.6695 H       1  ZINC001342153661    0.0900
     62 H62        -0.0591    1.2545   46.9543 H       1  ZINC001342153661    0.0500
@<TRIPOS>BOND
     1     1     2    2
     2     1    32    1
     3     1    33    1
     4     2     3    1
     5     2     4    1
     6     3    34    1
     7     3    35    1
     8     3    36    1
     9     4     5    1
    10     4    37    1
    11     4    38    1
    12     5    19    1
    13     5     6    1
    14     6     7    1
    15     6    17    2
    16     7     8    1
    17     7    39    1
    18     7    40    1
    19     8     9    1
    20     8    10    1
    21     8    11    1
    22    10    41    1
    23    11    16   ar
    24    11    12   ar
    25    12    13   ar
    26    12    42    1
    27    13    14   ar
    28    13    43    1
    29    14    15   ar
    30    14    44    1
    31    15    16   ar
    32    16    45    1
    33    17    18    1
    34    18    19    2
    35    19    20    1
    36    20    31    1
    37    20    21    1
    38    21    22    1
    39    21    46    1
    40    21    47    1
    41    22    23    1
    42    22    48    1
    43    22    49    1
    44    23    24    1
    45    23    50    1
    46    23    51    1
    47    24    25    1
    48    24    26    1
    49    24    31    1
    50    26    30    1
    51    26    27    1
    52    26    52    1
    53    27    28    1
    54    27    53    1
    55    27    54    1
    56    28    29    1
    57    28    55    1
    58    28    56    1
    59    29    30    1
    60    29    57    1
    61    29    58    1
    62    30    59    1
    63    30    60    1
    64    31    61    1
    65    31    62    1
@<TRIPOS>SUBSTRUCTURE
     1 ZINC001342153661        1 TEMP              0 ****  ****    0 ROOT


##########                                Name:    ZINC000193795672
##########                DOCK_Rotatable_Bonds:                  10
##########                         Heavy_Atoms:                  23
##########                    Molecular_Weight:              332.47
##########                DOCK_Rotatable_Bonds:                  10
##########                       Formal_Charge:        -2.98023e-07
##########                     HBond_Acceptors:                   6
##########                        HBond_Donors:                   3
##########                         Heavy_Atoms:                  23
##########                          Grid_Score:          -32.688942
##########                     Grid_vdw_energy:          -31.693590
##########                      Grid_es_energy:           -0.995353
##########           Internal_energy_repulsive:            7.046443

@<TRIPOS>MOLECULE
ZINC000193795672
 47 48 1 0 0
SMALL
USER_CHARGES


@<TRIPOS>ATOM
      1 C1          0.5393    3.3595   47.7088 C.3     1  <0>        -0.1000
      2 C2         -0.8514    3.0276   48.1851 C.ar    1  <0>        -0.2000
      3 C3         -1.3510    3.6027   49.3458 C.ar    1  <0>        -0.0300
      4 C4         -2.6326    3.2715   49.7479 C.ar    1  <0>        -0.2400
      5 C5         -3.3730    2.3788   48.9801 C.ar    1  <0>         0.4000
      6 N6         -4.6621    2.0374   49.3725 N.pl3   1  <0>        -0.7300
      7 C7         -4.9411    1.7200   50.7753 C.3     1  <0>         0.1300
      8 C8         -6.4334    1.4284   50.9452 C.3     1  <0>        -0.1400
      9 C9         -6.7645    1.3155   52.4347 C.3     1  <0>         0.1400
     10 N10        -8.2088    1.4685   52.6268 N.am    1  <0>        -0.7500
     11 C11        -9.0315    0.4224   52.4144 C.2     1  <0>         0.7100
     12 O12        -8.5749   -0.6489   52.0648 O.2     1  <0>        -0.5900
     13 N13       -10.3603    0.5637   52.5896 N.am    1  <0>        -0.7400
     14 C14       -11.2547   -0.5730   52.3570 C.3     1  <0>         0.1700
     15 H15       -10.8715   -1.1742   51.5325 H       1  <0>         0.0900
     16 C16       -11.3292   -1.4306   53.6219 C.3     1  <0>        -0.1700
     17 C17       -12.6525   -0.0588   52.0065 C.3     1  <0>        -0.0600
     18 C18       -12.6253    0.5796   50.6417 C.2     1  <0>        -0.1700
     19 C19       -12.3089    1.8515   50.3938 C.2     1  <0>        -0.1400
     20 C20       -12.3523    2.2138   49.0586 C.2     1  <0>        -0.1300
     21 C21       -12.7039    1.2361   48.2220 C.2     1  <0>        -0.2100
     22 S22       -12.9982   -0.2406   49.1311 S.3     1  <0>         0.0900
     23 N23        -2.8611    1.8517   47.8786 N.ar    1  <0>        -0.5400
     24 C24        -1.6437    2.1529   47.4685 C.ar    1  <0>         0.1500
     25 H25         0.5001    4.2257   47.0484 H       1  <0>         0.0700
     26 H26         1.1730    3.5850   48.5666 H       1  <0>         0.0600
     27 H27         0.9507    2.5078   47.1670 H       1  <0>         0.0700
     28 H28        -0.7524    4.2927   49.9221 H       1  <0>         0.1300
     29 H29        -3.0524    3.7002   50.6461 H       1  <0>         0.1300
     30 H30        -5.3771    2.0093   48.7175 H       1  <0>         0.4000
     31 H31        -4.3637    0.8442   51.0714 H       1  <0>         0.0700
     32 H32        -4.6628    2.5675   51.4018 H       1  <0>         0.0700
     33 H33        -7.0144    2.2384   50.5042 H       1  <0>         0.0800
     34 H34        -6.6795    0.4912   50.4462 H       1  <0>         0.0800
     35 H35        -6.4503    0.3392   52.8037 H       1  <0>         0.0700
     36 H36        -6.2401    2.0975   52.9838 H       1  <0>         0.0700
     37 H37        -8.5730    2.3229   52.9069 H       1  <0>         0.4000
     38 H38       -10.7245    1.4180   52.8696 H       1  <0>         0.3900
     39 H39       -11.7125   -0.8295   54.4464 H       1  <0>         0.0600
     40 H40       -11.9947   -2.2764   53.4488 H       1  <0>         0.0700
     41 H41       -10.3335   -1.7970   53.8715 H       1  <0>         0.0700
     42 H42       -13.3560   -0.8913   52.0043 H       1  <0>         0.1000
     43 H43       -12.9644    0.6785   52.7463 H       1  <0>         0.0800
     44 H44       -12.0397    2.5461   51.1758 H       1  <0>         0.1400
     45 H45       -12.1195    3.2125   48.7197 H       1  <0>         0.1400
     46 H46       -12.7909    1.3350   47.1501 H       1  <0>         0.1600
     47 H47        -1.2591    1.7034   46.5650 H       1  <0>         0.1500
@<TRIPOS>BOND
     1     1     2    1
     2     1    25    1
     3     1    26    1
     4     1    27    1
     5     2    24   ar
     6     2     3   ar
     7     3     4   ar
     8     3    28    1
     9     4     5   ar
    10     4    29    1
    11     5     6    1
    12     5    23   ar
    13     6     7    1
    14     6    30    1
    15     7     8    1
    16     7    31    1
    17     7    32    1
    18     8     9    1
    19     8    33    1
    20     8    34    1
    21     9    10    1
    22     9    35    1
    23     9    36    1
    24    10    11   am
    25    10    37    1
    26    11    12    2
    27    11    13   am
    28    13    14    1
    29    13    38    1
    30    14    15    1
    31    14    16    1
    32    14    17    1
    33    16    39    1
    34    16    40    1
    35    16    41    1
    36    17    18    1
    37    17    42    1
    38    17    43    1
    39    18    22    1
    40    18    19    2
    41    19    20    1
    42    19    44    1
    43    20    21    2
    44    20    45    1
    45    21    22    1
    46    21    46    1
    47    23    24   ar
    48    24    47    1
@<TRIPOS>SUBSTRUCTURE
     1 <0>         1 TEMP              0 ****  ****    0 ROOT


##########                                Name:    ZINC000637608314
##########                DOCK_Rotatable_Bonds:                   9
##########                         Heavy_Atoms:                  28
##########                    Molecular_Weight:             387.479
##########                DOCK_Rotatable_Bonds:                   9
##########                       Formal_Charge:           0.0499991
##########                     HBond_Acceptors:                   7
##########                        HBond_Donors:                   2
##########                         Heavy_Atoms:                  28
##########                          Grid_Score:          -32.676472
##########                     Grid_vdw_energy:          -31.634434
##########                      Grid_es_energy:           -1.042037
##########           Internal_energy_repulsive:           17.336256

@<TRIPOS>MOLECULE
ZINC000637608314
 57 59 1 0 0
SMALL
USER_CHARGES


@<TRIPOS>ATOM
      1 C1          3.0241   -0.7907   47.8291 C.3     1  ZINC000637608314   -0.1400
      2 C2          3.1710    0.5020   48.6343 C.3     1  ZINC000637608314   -0.0400
      3 C3          3.3364    0.1632   50.1171 C.3     1  ZINC000637608314   -0.1500
      4 C4          4.4012    1.2696   48.1462 C.3     1  ZINC000637608314   -0.1500
      5 C5          1.9413    1.3527   48.4475 C.2     1  ZINC000637608314    0.1900
      6 C6          1.8266    2.5209   49.1214 C.2     1  ZINC000637608314   -0.2400
      7 C7          0.6853    3.3173   48.9522 C.2     1  ZINC000637608314    0.0200
      8 C8         -0.2993    2.9003   48.1054 C.2     1  ZINC000637608314   -0.2400
      9 C9         -1.5362    3.7375   47.9049 C.3     1  ZINC000637608314    0.2100
     10 N10        -2.2147    3.9219   49.1900 N.am    1  ZINC000637608314   -0.7300
     11 C11        -3.0213    2.9552   49.6711 C.2     1  ZINC000637608314    0.7100
     12 O12        -3.1870    1.9307   49.0377 O.2     1  ZINC000637608314   -0.5900
     13 N13        -3.6443    3.1242   50.8542 N.am    1  ZINC000637608314   -0.6200
     14 C14        -3.4461    4.3594   51.6166 C.3     1  ZINC000637608314    0.2000
     15 C15        -2.5221    4.0911   52.7763 C.2     1  ZINC000637608314   -0.0400
     16 C16        -1.1838    4.2263   52.7635 C.2     1  ZINC000637608314   -0.1900
     17 C17        -0.7239    3.8724   54.0527 C.2     1  ZINC000637608314   -0.2200
     18 C18        -1.8087    3.5422   54.7764 C.2     1  ZINC000637608314   -0.0300
     19 O19        -2.8955    3.6821   53.9998 O.3     1  ZINC000637608314   -0.1700
     20 C20        -4.5196    2.0727   51.3779 C.3     1  ZINC000637608314    0.1300
     21 C21        -5.9270    2.2476   50.8037 C.3     1  ZINC000637608314    0.0700
     22 H22        -5.8672    2.4542   49.7352 H       1  ZINC000637608314    0.0900
     23 C23        -6.6452    3.4098   51.5225 C.3     1  ZINC000637608314   -0.1500
     24 C24        -8.0940    2.8675   51.6595 C.3     1  ZINC000637608314   -0.1600
     25 C25        -7.8240    1.3557   51.8650 C.3     1  ZINC000637608314    0.0500
     26 O26        -6.6939    1.0584   51.0265 O.3     1  ZINC000637608314   -0.3800
     27 C27        -0.1478    1.6820   47.4213 C.2     1  ZINC000637608314    0.5300
     28 O28        -1.0210    1.2973   46.6601 O.2     1  ZINC000637608314   -0.5400
     29 N29         0.9628    0.9420   47.6007 N.am    1  ZINC000637608314   -0.6000
     30 H30         2.1477   -1.3377   48.1768 H       1  ZINC000637608314    0.0700
     31 H31         2.9063   -0.5493   46.7728 H       1  ZINC000637608314    0.0700
     32 H32         3.9136   -1.4060   47.9642 H       1  ZINC000637608314    0.0700
     33 H33         4.2259   -0.4521   50.2522 H       1  ZINC000637608314    0.0700
     34 H34         3.4412    1.0841   50.6908 H       1  ZINC000637608314    0.0600
     35 H35         2.4601   -0.3838   50.4648 H       1  ZINC000637608314    0.0700
     36 H36         4.2834    1.5111   47.0899 H       1  ZINC000637608314    0.0700
     37 H37         4.5059    2.1906   48.7199 H       1  ZINC000637608314    0.0600
     38 H38         5.2907    0.6543   48.2813 H       1  ZINC000637608314    0.0700
     39 H39         2.6135    2.8391   49.7892 H       1  ZINC000637608314    0.1500
     40 H40         0.5866    4.2505   49.4870 H       1  ZINC000637608314    0.1400
     41 H41        -1.2552    4.7096   47.4996 H       1  ZINC000637608314    0.0800
     42 H42        -2.2070    3.2338   47.2089 H       1  ZINC000637608314    0.0800
     43 H43        -2.0835    4.7398   49.6949 H       1  ZINC000637608314    0.4000
     44 H44        -3.0066    5.1190   50.9700 H       1  ZINC000637608314    0.1200
     45 H45        -4.4066    4.7130   51.9915 H       1  ZINC000637608314    0.0900
     46 H46        -0.5770    4.5437   51.9283 H       1  ZINC000637608314    0.1500
     47 H47         0.3015    3.8678   54.3915 H       1  ZINC000637608314    0.1500
     48 H48        -1.8064    3.2227   55.8080 H       1  ZINC000637608314    0.2000
     49 H49        -4.1282    1.0971   51.0894 H       1  ZINC000637608314    0.0800
     50 H50        -4.5596    2.1411   52.4650 H       1  ZINC000637608314    0.1000
     51 H51        -6.2045    3.5911   52.5029 H       1  ZINC000637608314    0.0800
     52 H52        -6.6253    4.3138   50.9139 H       1  ZINC000637608314    0.0900
     53 H53        -8.5945    3.2987   52.5267 H       1  ZINC000637608314    0.0800
     54 H54        -8.6672    3.0441   50.7494 H       1  ZINC000637608314    0.0800
     55 H55        -7.5852    1.1525   52.9090 H       1  ZINC000637608314    0.0600
     56 H56        -8.6895    0.7710   51.5533 H       1  ZINC000637608314    0.0800
     57 H57         1.0614    0.1023   47.1253 H       1  ZINC000637608314    0.4100
@<TRIPOS>BOND
     1     1     2    1
     2     1    30    1
     3     1    31    1
     4     1    32    1
     5     2     3    1
     6     2     4    1
     7     2     5    1
     8     3    33    1
     9     3    34    1
    10     3    35    1
    11     4    36    1
    12     4    37    1
    13     4    38    1
    14     5    29    1
    15     5     6    2
    16     6     7    1
    17     6    39    1
    18     7     8    2
    19     7    40    1
    20     8     9    1
    21     8    27    1
    22     9    10    1
    23     9    41    1
    24     9    42    1
    25    10    11   am
    26    10    43    1
    27    11    12    2
    28    11    13   am
    29    13    14    1
    30    13    20    1
    31    14    15    1
    32    14    44    1
    33    14    45    1
    34    15    19    1
    35    15    16    2
    36    16    17    1
    37    16    46    1
    38    17    18    2
    39    17    47    1
    40    18    19    1
    41    18    48    1
    42    20    21    1
    43    20    49    1
    44    20    50    1
    45    21    22    1
    46    21    26    1
    47    21    23    1
    48    23    24    1
    49    23    51    1
    50    23    52    1
    51    24    25    1
    52    24    53    1
    53    24    54    1
    54    25    26    1
    55    25    55    1
    56    25    56    1
    57    27    28    2
    58    27    29   am
    59    29    57    1
@<TRIPOS>SUBSTRUCTURE
     1 ZINC000637608314        1 TEMP              0 ****  ****    0 ROOT


##########                                Name:    ZINC000981048968
##########                DOCK_Rotatable_Bonds:                   7
##########                         Heavy_Atoms:                  25
##########                    Molecular_Weight:             344.414
##########                DOCK_Rotatable_Bonds:                   7
##########                       Formal_Charge:                0.02
##########                     HBond_Acceptors:                   7
##########                        HBond_Donors:                   2
##########                         Heavy_Atoms:                  25
##########                          Grid_Score:          -32.660488
##########                     Grid_vdw_energy:          -32.633778
##########                      Grid_es_energy:           -0.026712
##########           Internal_energy_repulsive:            6.529349

@<TRIPOS>MOLECULE
ZINC000981048968
 49 52 1 0 0
SMALL
USER_CHARGES


@<TRIPOS>ATOM
      1 C1         -8.3143    2.0626   53.1866 C.3     1  ZINC000981048968   -0.0800
      2 C2         -7.1829    2.0553   52.1911 C.2     1  ZINC000981048968   -0.0100
      3 C3         -5.9647    2.5799   52.3941 C.2     1  ZINC000981048968   -0.1600
      4 C4         -5.2083    2.3356   51.1574 C.2     1  ZINC000981048968   -0.2300
      5 C5         -3.8138    2.7200   50.8753 C.2     1  ZINC000981048968    0.5900
      6 O6         -3.0802    3.0574   51.7847 O.2     1  ZINC000981048968   -0.5300
      7 N7         -3.3515    2.6977   49.6095 N.am    1  ZINC000981048968   -0.7300
      8 C8         -1.9658    3.0816   49.3289 C.3     1  ZINC000981048968    0.1500
      9 H9         -1.3170    2.7044   50.1195 H       1  ZINC000981048968    0.0900
     10 C10        -1.8616    4.6069   49.2678 C.3     1  ZINC000981048968   -0.1300
     11 C11        -0.4144    5.0078   48.9748 C.3     1  ZINC000981048968   -0.1200
     12 C12         0.0179    4.4129   47.6331 C.3     1  ZINC000981048968   -0.1100
     13 C13        -0.0863    2.8877   47.6941 C.3     1  ZINC000981048968    0.1000
     14 H14         0.5624    2.5106   48.4847 H       1  ZINC000981048968    0.0500
     15 N15         0.3288    2.3166   46.4060 N.3     1  ZINC000981048968   -0.6800
     16 C16         1.7930    2.2778   46.2945 C.3     1  ZINC000981048968    0.1500
     17 C17         2.3004    0.9518   46.7997 C.2     1  ZINC000981048968    0.1800
     18 N18         3.3105    0.2845   46.3277 N.2     1  ZINC000981048968   -0.3800
     19 O19         3.4630   -0.7441   46.9524 O.3     1  ZINC000981048968    0.0800
     20 C20         2.5366   -0.8331   47.9115 C.2     1  ZINC000981048968    0.2100
     21 C21         2.3786   -1.9549   48.9053 C.3     1  ZINC000981048968   -0.0800
     22 C22         3.2947   -1.9473   50.1307 C.3     1  ZINC000981048968   -0.1600
     23 C23         1.8114   -1.6041   50.2823 C.3     1  ZINC000981048968   -0.1500
     24 N24         1.7944    0.2445   47.8257 N.2     1  ZINC000981048968   -0.4600
     25 C25        -1.5334    2.4868   47.9872 C.3     1  ZINC000981048968   -0.1300
     26 C26        -6.0666    1.6777   50.3258 C.2     1  ZINC000981048968    0.0200
     27 O27        -7.2310    1.5180   50.9622 O.3     1  ZINC000981048968   -0.1700
     28 H28        -9.1816    1.5632   52.7545 H       1  ZINC000981048968    0.0800
     29 H29        -8.0061    1.5378   54.0908 H       1  ZINC000981048968    0.0900
     30 H30        -8.5737    3.0919   53.4343 H       1  ZINC000981048968    0.0900
     31 H31        -5.6120    3.0799   53.2841 H       1  ZINC000981048968    0.1600
     32 H32        -3.9362    2.4274   48.8843 H       1  ZINC000981048968    0.4000
     33 H33        -2.5103    4.9840   48.4772 H       1  ZINC000981048968    0.0700
     34 H34        -2.1695    5.0306   50.2237 H       1  ZINC000981048968    0.0700
     35 H35        -0.3401    6.0944   48.9313 H       1  ZINC000981048968    0.0700
     36 H36         0.2343    4.6306   49.7653 H       1  ZINC000981048968    0.0600
     37 H37        -0.6308    4.7900   46.8425 H       1  ZINC000981048968    0.0700
     38 H38         1.0489    4.6985   47.4243 H       1  ZINC000981048968    0.0700
     39 H39        -0.0684    1.3986   46.2726 H       1  ZINC000981048968    0.3500
     40 H40         2.0813    2.4036   45.2509 H       1  ZINC000981048968    0.1100
     41 H41         2.2241    3.0826   46.8901 H       1  ZINC000981048968    0.0600
     42 H42         2.1111   -2.9233   48.4826 H       1  ZINC000981048968    0.1500
     43 H43         3.6302   -2.9108   50.5143 H       1  ZINC000981048968    0.1200
     44 H44         4.0117   -1.1310   50.2180 H       1  ZINC000981048968    0.1100
     45 H45         1.5526   -0.5619   50.4693 H       1  ZINC000981048968    0.1000
     46 H46         1.1710   -2.3419   50.7657 H       1  ZINC000981048968    0.1200
     47 H47        -1.6077    1.4002   48.0306 H       1  ZINC000981048968    0.0700
     48 H48        -2.1822    2.8639   47.1966 H       1  ZINC000981048968    0.0800
     49 H49        -5.8422    1.3402   49.3248 H       1  ZINC000981048968    0.2100
@<TRIPOS>BOND
     1     1     2    1
     2     1    28    1
     3     1    29    1
     4     1    30    1
     5     2    27    1
     6     2     3    2
     7     3     4    1
     8     3    31    1
     9     4     5    1
    10     4    26    2
    11     5     6    2
    12     5     7   am
    13     7     8    1
    14     7    32    1
    15     8     9    1
    16     8    25    1
    17     8    10    1
    18    10    11    1
    19    10    33    1
    20    10    34    1
    21    11    12    1
    22    11    35    1
    23    11    36    1
    24    12    13    1
    25    12    37    1
    26    12    38    1
    27    13    14    1
    28    13    15    1
    29    13    25    1
    30    15    16    1
    31    15    39    1
    32    16    17    1
    33    16    40    1
    34    16    41    1
    35    17    24    1
    36    17    18    2
    37    18    19    1
    38    19    20    1
    39    20    21    1
    40    20    24    2
    41    21    23    1
    42    21    22    1
    43    21    42    1
    44    22    23    1
    45    22    43    1
    46    22    44    1
    47    23    45    1
    48    23    46    1
    49    25    47    1
    50    25    48    1
    51    26    27    1
    52    26    49    1
@<TRIPOS>SUBSTRUCTURE
     1 ZINC000981048968        1 TEMP              0 ****  ****    0 ROOT


##########                                Name:    ZINC001411334959
##########                DOCK_Rotatable_Bonds:                   9
##########                         Heavy_Atoms:                  24
##########                    Molecular_Weight:              339.37
##########                DOCK_Rotatable_Bonds:                   9
##########                       Formal_Charge:           0.0199995
##########                     HBond_Acceptors:                   9
##########                        HBond_Donors:                   3
##########                         Heavy_Atoms:                  24
##########                          Grid_Score:          -32.644943
##########                     Grid_vdw_energy:          -29.524380
##########                      Grid_es_energy:           -3.120563
##########           Internal_energy_repulsive:            7.271883

@<TRIPOS>MOLECULE
ZINC001411334959
 46 48 1 0 0
SMALL
USER_CHARGES


@<TRIPOS>ATOM
      1 O1         -1.8200    5.1327   55.0619 O.2     1  ZINC001411334959   -0.5400
      2 C2         -2.5784    4.2653   55.4405 C.2     1  ZINC001411334959    0.5200
      3 C3         -2.3589    3.6030   56.7763 C.3     1  ZINC001411334959   -0.1400
      4 C4         -0.8725    3.2846   56.9496 C.3     1  ZINC001411334959   -0.0100
      5 C5         -0.6416    2.6922   58.3159 C.2     1  ZINC001411334959    0.0100
      6 N6         -1.2982    2.9687   59.4197 N.2     1  ZINC001411334959   -0.2800
      7 N7         -0.8114    2.2618   60.3775 N.pl3   1  ZINC001411334959   -0.2500
      8 N8          0.1499    1.5202   59.9538 N.2     1  ZINC001411334959   -0.2800
      9 C9          0.3103    1.7323   58.6671 C.2     1  ZINC001411334959   -0.0200
     10 N10        -3.6207    3.8975   54.6692 N.am    1  ZINC001411334959   -0.7200
     11 C11        -3.8340    4.5413   53.3707 C.3     1  ZINC001411334959    0.1200
     12 C12        -2.7309    4.2367   52.3434 C.3     1  ZINC001411334959   -0.1400
     13 C13        -3.8486    4.1280   51.2927 C.3     1  ZINC001411334959   -0.1200
     14 C14        -3.6423    2.9872   50.2943 C.3     1  ZINC001411334959    0.1300
     15 N15        -2.3275    3.1231   49.6625 N.am    1  ZINC001411334959   -0.7200
     16 C16        -2.0838    2.5265   48.4788 C.2     1  ZINC001411334959    0.5100
     17 O17        -2.9533    1.8783   47.9359 O.2     1  ZINC001411334959   -0.5100
     18 C18        -0.7308    2.6648   47.8297 C.3     1  ZINC001411334959    0.0700
     19 F19         0.2638    2.0922   48.6300 F       1  ZINC001411334959   -0.1800
     20 C20        -0.7325    2.0373   46.4090 C.3     1  ZINC001411334959   -0.1600
     21 C21         0.3671    2.8795   45.7143 C.3     1  ZINC001411334959    0.0500
     22 O22         0.2185    4.2045   46.2487 O.3     1  ZINC001411334959   -0.3700
     23 C23        -0.4123    4.1460   47.5333 C.3     1  ZINC001411334959    0.0400
     24 C24        -4.7947    3.7695   52.4508 C.3     1  ZINC001411334959   -0.1400
     25 H25        -2.6819    4.2743   57.5721 H       1  ZINC001411334959    0.1000
     26 H26        -2.9361    2.6796   56.8233 H       1  ZINC001411334959    0.1000
     27 H27        -0.5626    2.5703   56.1868 H       1  ZINC001411334959    0.1000
     28 H28        -0.2904    4.2005   56.8475 H       1  ZINC001411334959    0.0900
     29 H29        -1.1264    2.2851   61.2946 H       1  ZINC001411334959    0.4700
     30 H30         1.0344    1.2653   58.0160 H       1  ZINC001411334959    0.2000
     31 H31        -4.2294    3.2065   54.9739 H       1  ZINC001411334959    0.4000
     32 H32        -4.0705    5.6018   53.4577 H       1  ZINC001411334959    0.1200
     33 H33        -2.0507    5.0710   52.1726 H       1  ZINC001411334959    0.0800
     34 H34        -2.2112    3.2963   52.5268 H       1  ZINC001411334959    0.0900
     35 H35        -4.0872    5.0754   50.8096 H       1  ZINC001411334959    0.1000
     36 H36        -3.6972    2.0323   50.8171 H       1  ZINC001411334959    0.0800
     37 H37        -4.4186    3.0282   49.5302 H       1  ZINC001411334959    0.0800
     38 H38        -1.6324    3.6425   50.0960 H       1  ZINC001411334959    0.4100
     39 H39        -0.4564    0.9835   46.4447 H       1  ZINC001411334959    0.1000
     40 H40        -1.6978    2.1724   45.9211 H       1  ZINC001411334959    0.1100
     41 H41         1.3542    2.4837   45.9531 H       1  ZINC001411334959    0.0700
     42 H42         0.2126    2.8871   44.6353 H       1  ZINC001411334959    0.1000
     43 H43        -1.3347    4.7268   47.5192 H       1  ZINC001411334959    0.0900
     44 H44         0.2617    4.5388   48.2945 H       1  ZINC001411334959    0.0900
     45 H45        -4.8391    2.7014   52.6637 H       1  ZINC001411334959    0.0900
     46 H46        -5.7805    4.2267   52.3668 H       1  ZINC001411334959    0.0800
@<TRIPOS>BOND
     1     1     2    2
     2     2     3    1
     3     2    10   am
     4     3     4    1
     5     3    25    1
     6     3    26    1
     7     4     5    1
     8     4    27    1
     9     4    28    1
    10     5     9    1
    11     5     6    2
    12     6     7    1
    13     7     8    1
    14     7    29    1
    15     8     9    2
    16     9    30    1
    17    10    11    1
    18    10    31    1
    19    11    24    1
    20    11    12    1
    21    11    32    1
    22    12    13    1
    23    12    33    1
    24    12    34    1
    25    13    14    1
    26    13    24    1
    27    13    35    1
    28    14    15    1
    29    14    36    1
    30    14    37    1
    31    15    16   am
    32    15    38    1
    33    16    17    2
    34    16    18    1
    35    18    23    1
    36    18    19    1
    37    18    20    1
    38    20    21    1
    39    20    39    1
    40    20    40    1
    41    21    22    1
    42    21    41    1
    43    21    42    1
    44    22    23    1
    45    23    43    1
    46    23    44    1
    47    24    45    1
    48    24    46    1
@<TRIPOS>SUBSTRUCTURE
     1 ZINC001411334959        1 TEMP              0 ****  ****    0 ROOT


##########                                Name:    ZINC000821177065
##########                DOCK_Rotatable_Bonds:                  10
##########                         Heavy_Atoms:                  25
##########                    Molecular_Weight:             341.413
##########                DOCK_Rotatable_Bonds:                  10
##########                       Formal_Charge:          0.00999917
##########                     HBond_Acceptors:                   7
##########                        HBond_Donors:                   3
##########                         Heavy_Atoms:                  25
##########                          Grid_Score:          -32.613754
##########                     Grid_vdw_energy:          -30.341465
##########                      Grid_es_energy:           -2.272287
##########           Internal_energy_repulsive:           22.389845

@<TRIPOS>MOLECULE
ZINC000821177065
 48 51 1 0 0
SMALL
USER_CHARGES


@<TRIPOS>ATOM
      1 O1         -5.3942    1.7087   49.8855 O.2     1  ZINC000821177065   -0.5600
      2 C2         -4.9104    2.1646   50.9036 C.2     1  ZINC000821177065    0.7100
      3 N3         -5.5979    2.1060   52.0613 N.am    1  ZINC000821177065   -0.7300
      4 C4         -6.9306    1.4982   52.0919 C.3     1  ZINC000821177065    0.1200
      5 C5         -7.9938    2.5973   52.0400 C.3     1  ZINC000821177065    0.1900
      6 O6         -7.9647    3.2279   50.7580 O.3     1  ZINC000821177065   -0.5400
      7 C7         -9.3749    1.9824   52.2748 C.3     1  ZINC000821177065   -0.1500
      8 C8         -9.4607    0.4586   52.3823 C.3     1  ZINC000821177065   -0.1600
      9 C9         -9.6338    1.3246   53.6317 C.3     1  ZINC000821177065   -0.1700
     10 C10        -7.7067    3.6361   53.1260 C.3     1  ZINC000821177065   -0.1800
     11 C11        -7.1777    4.9997   52.6772 C.3     1  ZINC000821177065   -0.1900
     12 C12        -8.6148    4.8661   53.1848 C.3     1  ZINC000821177065   -0.1700
     13 N13        -3.6845    2.7238   50.8756 N.am    1  ZINC000821177065   -0.6500
     14 C14        -2.9693    2.7848   49.6713 C.2     1  ZINC000821177065    0.3200
     15 N15        -2.8272    1.8062   48.8088 N.2     1  ZINC000821177065   -0.3200
     16 N16        -2.0455    2.2723   47.7441 N.pl3   1  ZINC000821177065   -0.3600
     17 C17        -1.6477    1.4987   46.5653 C.3     1  ZINC000821177065    0.1900
     18 C18        -0.2087    1.7962   46.2314 C.ar    1  ZINC000821177065    0.1100
     19 C19         0.0888    2.7814   45.3093 C.ar    1  ZINC000821177065   -0.1500
     20 C20         1.4163    3.0476   45.0094 C.ar    1  ZINC000821177065   -0.0700
     21 C21         2.3986    2.3095   45.6512 C.ar    1  ZINC000821177065   -0.1700
     22 C22         2.0249    1.3396   46.5624 C.ar    1  ZINC000821177065    0.1000
     23 N23         0.7525    1.1169   46.8267 N.ar    1  ZINC000821177065   -0.4700
     24 C24        -1.7235    3.5590   47.9937 C.2     1  ZINC000821177065    0.0700
     25 C25        -2.2849    3.9054   49.1743 C.2     1  ZINC000821177065   -0.2600
     26 H26        -5.2104    2.4661   52.8744 H       1  ZINC000821177065    0.4000
     27 H27        -7.0485    0.8378   51.2327 H       1  ZINC000821177065    0.0700
     28 H28        -7.0468    0.9234   53.0107 H       1  ZINC000821177065    0.0800
     29 H29        -8.0520    2.6143   50.0157 H       1  ZINC000821177065    0.3800
     30 H30       -10.2076    2.5015   51.8001 H       1  ZINC000821177065    0.1100
     31 H31       -10.3500   -0.0252   51.9781 H       1  ZINC000821177065    0.0900
     32 H32        -8.5333   -0.1058   52.2857 H       1  ZINC000821177065    0.1100
     33 H33        -8.8203    1.3299   54.3571 H       1  ZINC000821177065    0.1000
     34 H34       -10.6369    1.4106   54.0494 H       1  ZINC000821177065    0.0900
     35 H35        -7.3363    3.2384   54.0708 H       1  ZINC000821177065    0.1100
     36 H36        -6.4590    5.4994   53.3266 H       1  ZINC000821177065    0.1000
     37 H37        -7.0342    5.1569   51.6081 H       1  ZINC000821177065    0.1100
     38 H38        -9.4168    4.9352   52.4498 H       1  ZINC000821177065    0.0900
     39 H39        -8.8416    5.2777   54.1683 H       1  ZINC000821177065    0.1000
     40 H40        -3.2969    3.0839   51.6886 H       1  ZINC000821177065    0.4100
     41 H41        -1.7598    0.4348   46.7742 H       1  ZINC000821177065    0.1000
     42 H42        -2.2806    1.7718   45.7209 H       1  ZINC000821177065    0.1200
     43 H43        -0.7025    3.3368   44.8279 H       1  ZINC000821177065    0.1400
     44 H44         1.6786    3.8117   44.2925 H       1  ZINC000821177065    0.1400
     45 H45         3.4427    2.4898   45.4418 H       1  ZINC000821177065    0.1400
     46 H46         2.7841    0.7599   47.0664 H       1  ZINC000821177065    0.1600
     47 H47        -1.1273    4.1995   47.3608 H       1  ZINC000821177065    0.1800
     48 H48        -2.2132    4.8707   49.6535 H       1  ZINC000821177065    0.1700
@<TRIPOS>BOND
     1     1     2    2
     2     2     3   am
     3     2    13   am
     4     3     4    1
     5     3    26    1
     6     4     5    1
     7     4    27    1
     8     4    28    1
     9     5     6    1
    10     5     7    1
    11     5    10    1
    12     6    29    1
    13     7     9    1
    14     7     8    1
    15     7    30    1
    16     8     9    1
    17     8    31    1
    18     8    32    1
    19     9    33    1
    20     9    34    1
    21    10    12    1
    22    10    11    1
    23    10    35    1
    24    11    12    1
    25    11    36    1
    26    11    37    1
    27    12    38    1
    28    12    39    1
    29    13    14    1
    30    13    40    1
    31    14    25    1
    32    14    15    2
    33    15    16    1
    34    16    17    1
    35    16    24    1
    36    17    18    1
    37    17    41    1
    38    17    42    1
    39    18    23   ar
    40    18    19   ar
    41    19    20   ar
    42    19    43    1
    43    20    21   ar
    44    20    44    1
    45    21    22   ar
    46    21    45    1
    47    22    23   ar
    48    22    46    1
    49    24    25    2
    50    24    47    1
    51    25    48    1
@<TRIPOS>SUBSTRUCTURE
     1 ZINC000821177065        1 TEMP              0 ****  ****    0 ROOT


##########                                Name:    ZINC001070580102
##########                DOCK_Rotatable_Bonds:                   8
##########                         Heavy_Atoms:                  25
##########                    Molecular_Weight:              349.39
##########                DOCK_Rotatable_Bonds:                   8
##########                       Formal_Charge:          -0.0100003
##########                     HBond_Acceptors:                   9
##########                        HBond_Donors:                   3
##########                         Heavy_Atoms:                  25
##########                          Grid_Score:          -32.611107
##########                     Grid_vdw_energy:          -31.624367
##########                      Grid_es_energy:           -0.986741
##########           Internal_energy_repulsive:           18.569147

@<TRIPOS>MOLECULE
ZINC001070580102
 48 50 1 0 0
SMALL
USER_CHARGES


@<TRIPOS>ATOM
      1 C1          4.0307   -0.2232   46.9298 C.3     1  ZINC001070580102   -0.0800
      2 C2          2.8578    0.4666   47.5775 C.2     1  ZINC001070580102   -0.0100
      3 C3          1.7354    0.8479   46.9490 C.2     1  ZINC001070580102   -0.1900
      4 C4          0.8881    1.4704   47.9768 C.2     1  ZINC001070580102   -0.2500
      5 C5         -0.4536    2.0517   47.7931 C.2     1  ZINC001070580102    0.6000
      6 O6         -0.9523    2.0919   46.6847 O.2     1  ZINC001070580102   -0.5300
      7 N7         -1.1280    2.5387   48.8535 N.am    1  ZINC001070580102   -0.7200
      8 C8         -2.4610    3.1181   48.6706 C.3     1  ZINC001070580102    0.2000
      9 C9         -3.2737    2.9143   49.9232 C.2     1  ZINC001070580102    0.2600
     10 N10        -4.5798    2.9105   49.9996 N.2     1  ZINC001070580102   -0.5100
     11 C11        -4.9582    2.7023   51.2601 C.2     1  ZINC001070580102    0.2300
     12 C12        -6.3828    2.6301   51.7460 C.3     1  ZINC001070580102    0.1400
     13 H13        -7.0609    2.8327   50.9170 H       1  ZINC001070580102    0.0800
     14 C14        -6.5999    3.6689   52.8495 C.3     1  ZINC001070580102    0.0800
     15 O15        -7.9305    3.5454   53.3586 O.3     1  ZINC001070580102   -0.3800
     16 C16        -8.2256    2.2511   53.8909 C.3     1  ZINC001070580102    0.0600
     17 C17        -8.0250    1.1979   52.7980 C.3     1  ZINC001070580102    0.0200
     18 N18        -6.6510    1.2880   52.2828 N.3     1  ZINC001070580102   -0.5200
     19 C19        -6.3999    0.2545   51.2695 C.3     1  ZINC001070580102    0.0600
     20 C20        -6.8557   -1.1048   51.8037 C.3     1  ZINC001070580102    0.0800
     21 O21        -6.2294   -2.1463   51.0519 O.3     1  ZINC001070580102   -0.5700
     22 N22        -3.8934    2.5701   52.0066 N.2     1  ZINC001070580102   -0.2700
     23 N23        -2.7831    2.6988   51.1561 N.pl3   1  ZINC001070580102   -0.4700
     24 C24         1.6033    1.3967   49.1361 C.2     1  ZINC001070580102    0.0900
     25 C25         1.1548    1.9044   50.4823 C.3     1  ZINC001070580102   -0.0900
     26 O26         2.7669    0.7927   48.8763 O.3     1  ZINC001070580102   -0.1700
     27 H27         4.7974   -0.4177   47.6798 H       1  ZINC001070580102    0.0800
     28 H28         3.7018   -1.1665   46.4935 H       1  ZINC001070580102    0.0900
     29 H29         4.4411    0.4153   46.1476 H       1  ZINC001070580102    0.0900
     30 H30         1.5020    0.7233   45.9019 H       1  ZINC001070580102    0.1500
     31 H31        -0.7308    2.5056   49.7378 H       1  ZINC001070580102    0.4000
     32 H32        -2.3687    4.1850   48.4670 H       1  ZINC001070580102    0.1000
     33 H33        -2.9575    2.6299   47.8320 H       1  ZINC001070580102    0.1100
     34 H34        -5.8850    3.4994   53.6547 H       1  ZINC001070580102    0.0700
     35 H35        -6.4580    4.6694   52.4406 H       1  ZINC001070580102    0.1000
     36 H36        -7.5579    2.0404   54.7263 H       1  ZINC001070580102    0.0600
     37 H37        -9.2594    2.2261   54.2352 H       1  ZINC001070580102    0.1000
     38 H38        -8.1933    0.2048   53.2143 H       1  ZINC001070580102    0.1200
     39 H39        -8.7299    1.3772   51.9861 H       1  ZINC001070580102    0.0400
     40 H40        -6.9548    0.4929   50.3622 H       1  ZINC001070580102    0.0500
     41 H41        -5.3340    0.2177   51.0445 H       1  ZINC001070580102    0.0800
     42 H42        -6.5754   -1.1953   52.8531 H       1  ZINC001070580102    0.0500
     43 H43        -7.9382   -1.1883   51.7083 H       1  ZINC001070580102    0.0600
     44 H44        -6.4762   -2.1596   50.1170 H       1  ZINC001070580102    0.3800
     45 H45        -1.8480    2.6485   51.4092 H       1  ZINC001070580102    0.4400
     46 H46         0.6228    1.1131   51.0102 H       1  ZINC001070580102    0.0900
     47 H47         2.0250    2.2081   51.0643 H       1  ZINC001070580102    0.0800
     48 H48         0.4926    2.7593   50.3459 H       1  ZINC001070580102    0.1100
@<TRIPOS>BOND
     1     1     2    1
     2     1    27    1
     3     1    28    1
     4     1    29    1
     5     2    26    1
     6     2     3    2
     7     3     4    1
     8     3    30    1
     9     4     5    1
    10     4    24    2
    11     5     6    2
    12     5     7   am
    13     7     8    1
    14     7    31    1
    15     8     9    1
    16     8    32    1
    17     8    33    1
    18     9    23    1
    19     9    10    2
    20    10    11    1
    21    11    12    1
    22    11    22    2
    23    12    13    1
    24    12    18    1
    25    12    14    1
    26    14    15    1
    27    14    34    1
    28    14    35    1
    29    15    16    1
    30    16    17    1
    31    16    36    1
    32    16    37    1
    33    17    18    1
    34    17    38    1
    35    17    39    1
    36    18    19    1
    37    19    20    1
    38    19    40    1
    39    19    41    1
    40    20    21    1
    41    20    42    1
    42    20    43    1
    43    21    44    1
    44    22    23    1
    45    23    45    1
    46    24    25    1
    47    24    26    1
    48    25    46    1
    49    25    47    1
    50    25    48    1
@<TRIPOS>SUBSTRUCTURE
     1 ZINC001070580102        1 TEMP              0 ****  ****    0 ROOT


##########                                Name:    ZINC000435005159
##########                DOCK_Rotatable_Bonds:                  12
##########                         Heavy_Atoms:                  30
##########                    Molecular_Weight:             401.508
##########                DOCK_Rotatable_Bonds:                  12
##########                       Formal_Charge:          -0.0399985
##########                     HBond_Acceptors:                   5
##########                        HBond_Donors:                   2
##########                         Heavy_Atoms:                  30
##########                          Grid_Score:          -32.606438
##########                     Grid_vdw_energy:          -32.955620
##########                      Grid_es_energy:            0.349180
##########           Internal_energy_repulsive:           10.345969

@<TRIPOS>MOLECULE
ZINC000435005159
 57 59 1 0 0
SMALL
USER_CHARGES


@<TRIPOS>ATOM
      1 O1         -6.5565    4.8733   51.8853 O.2     1  ZINC000435005159   -0.5300
      2 C2         -6.6047    3.8279   51.2722 C.2     1  ZINC000435005159    0.5200
      3 C3         -7.9297    3.1452   51.0500 C.3     1  ZINC000435005159   -0.1400
      4 C4         -9.0590    4.1697   51.1768 C.3     1  ZINC000435005159   -0.1200
      5 C5        -10.4071    3.4462   51.1695 C.3     1  ZINC000435005159    0.1200
      6 N6        -10.8742    3.2979   49.7888 N.am    1  ZINC000435005159   -0.7200
      7 C7        -11.7659    2.3361   49.4788 C.2     1  ZINC000435005159    0.5600
      8 O8        -12.1816    1.5908   50.3445 O.2     1  ZINC000435005159   -0.5300
      9 C9        -12.2386    2.1874   48.0859 C.ar    1  ZINC000435005159   -0.1900
     10 C10       -13.0830    1.1292   47.7299 C.ar    1  ZINC000435005159   -0.0200
     11 C11       -13.4975    1.0353   46.4128 C.ar    1  ZINC000435005159   -0.1800
     12 C12       -13.0683    1.9808   45.4990 C.ar    1  ZINC000435005159    0.1200
     13 N13       -12.2717    2.9677   45.8633 N.ar    1  ZINC000435005159   -0.4900
     14 C14       -11.8552    3.1031   47.1049 C.ar    1  ZINC000435005159    0.1400
     15 N15        -5.4741    3.2797   50.7847 N.am    1  ZINC000435005159   -0.7300
     16 C16        -4.1861    3.9435   51.0007 C.3     1  ZINC000435005159    0.1900
     17 H17        -4.3428    5.0177   51.0995 H       1  ZINC000435005159    0.1000
     18 C18        -3.5416    3.4026   52.2786 C.3     1  ZINC000435005159   -0.1200
     19 C19        -3.3557    4.5451   53.2790 C.3     1  ZINC000435005159   -0.0800
     20 C20        -2.8232    3.9948   54.5770 C.ar    1  ZINC000435005159   -0.0800
     21 C21        -1.5147    3.5560   54.6567 C.ar    1  ZINC000435005159   -0.1200
     22 C22        -1.0262    3.0513   55.8473 C.ar    1  ZINC000435005159   -0.1200
     23 C23        -1.8461    2.9856   56.9583 C.ar    1  ZINC000435005159   -0.1200
     24 C24        -3.1543    3.4252   56.8788 C.ar    1  ZINC000435005159   -0.1200
     25 C25        -3.6415    3.9340   55.6894 C.ar    1  ZINC000435005159   -0.1200
     26 C26        -3.2791    3.6740   49.8278 C.ar    1  ZINC000435005159   -0.1000
     27 C27        -3.2831    2.4313   49.2223 C.ar    1  ZINC000435005159   -0.1100
     28 C28        -2.4512    2.1840   48.1464 C.ar    1  ZINC000435005159   -0.1200
     29 C29        -1.6155    3.1796   47.6756 C.ar    1  ZINC000435005159   -0.1200
     30 C30        -1.6123    4.4225   48.2806 C.ar    1  ZINC000435005159   -0.1200
     31 C31        -2.4473    4.6711   49.3537 C.ar    1  ZINC000435005159   -0.1000
     32 H32        -7.9489    2.7047   50.0531 H       1  ZINC000435005159    0.1000
     33 H33        -8.0644    2.3619   51.7959 H       1  ZINC000435005159    0.1000
     34 H34        -8.9469    4.7202   52.1108 H       1  ZINC000435005159    0.0800
     35 H35        -9.0149    4.8645   50.3381 H       1  ZINC000435005159    0.0800
     36 H36       -10.2934    2.4614   51.6224 H       1  ZINC000435005159    0.0700
     37 H37       -11.1338    4.0262   51.7384 H       1  ZINC000435005159    0.0700
     38 H38       -10.5415    3.8918   49.0978 H       1  ZINC000435005159    0.4000
     39 H39       -13.4026    0.4044   48.4642 H       1  ZINC000435005159    0.1500
     40 H40       -14.1488    0.2321   46.1016 H       1  ZINC000435005159    0.1500
     41 H41       -13.3903    1.9100   44.4706 H       1  ZINC000435005159    0.1600
     42 H42       -11.2038    3.9244   47.3646 H       1  ZINC000435005159    0.1600
     43 H43        -5.5132    2.4457   50.2910 H       1  ZINC000435005159    0.4000
     44 H44        -4.1853    2.6388   52.7149 H       1  ZINC000435005159    0.0700
     45 H45        -2.5712    2.9671   52.0400 H       1  ZINC000435005159    0.0800
     46 H46        -2.6495    5.2705   52.8751 H       1  ZINC000435005159    0.0700
     47 H47        -4.3146    5.0319   53.4571 H       1  ZINC000435005159    0.0700
     48 H48        -0.8742    3.6072   53.7886 H       1  ZINC000435005159    0.1200
     49 H49        -0.0042    2.7077   55.9093 H       1  ZINC000435005159    0.1200
     50 H50        -1.4647    2.5906   57.8883 H       1  ZINC000435005159    0.1200
     51 H51        -3.7950    3.3737   57.7468 H       1  ZINC000435005159    0.1200
     52 H52        -4.6636    4.2774   55.6274 H       1  ZINC000435005159    0.1200
     53 H53        -3.9359    1.6535   49.5900 H       1  ZINC000435005159    0.1200
     54 H54        -2.4537    1.2129   47.6738 H       1  ZINC000435005159    0.1200
     55 H55        -0.9652    2.9861   46.8355 H       1  ZINC000435005159    0.1200
     56 H56        -0.9592    5.2002   47.9130 H       1  ZINC000435005159    0.1200
     57 H57        -2.4448    5.6422   49.8263 H       1  ZINC000435005159    0.1200
@<TRIPOS>BOND
     1     1     2    2
     2     2     3    1
     3     2    15   am
     4     3     4    1
     5     3    32    1
     6     3    33    1
     7     4     5    1
     8     4    34    1
     9     4    35    1
    10     5     6    1
    11     5    36    1
    12     5    37    1
    13     6     7   am
    14     6    38    1
    15     7     8    2
    16     7     9    1
    17     9    14   ar
    18     9    10   ar
    19    10    11   ar
    20    10    39    1
    21    11    12   ar
    22    11    40    1
    23    12    13   ar
    24    12    41    1
    25    13    14   ar
    26    14    42    1
    27    15    16    1
    28    15    43    1
    29    16    17    1
    30    16    18    1
    31    16    26    1
    32    18    19    1
    33    18    44    1
    34    18    45    1
    35    19    20    1
    36    19    46    1
    37    19    47    1
    38    20    25   ar
    39    20    21   ar
    40    21    22   ar
    41    21    48    1
    42    22    23   ar
    43    22    49    1
    44    23    24   ar
    45    23    50    1
    46    24    25   ar
    47    24    51    1
    48    25    52    1
    49    26    31   ar
    50    26    27   ar
    51    27    28   ar
    52    27    53    1
    53    28    29   ar
    54    28    54    1
    55    29    30   ar
    56    29    55    1
    57    30    31   ar
    58    30    56    1
    59    31    57    1
@<TRIPOS>SUBSTRUCTURE
     1 ZINC000435005159        1 TEMP              0 ****  ****    0 ROOT


##########                                Name:    ZINC000031496632
##########                DOCK_Rotatable_Bonds:                   8
##########                         Heavy_Atoms:                  30
##########                    Molecular_Weight:             423.539
##########                DOCK_Rotatable_Bonds:                   8
##########                       Formal_Charge:          -0.0100009
##########                     HBond_Acceptors:                   8
##########                        HBond_Donors:                   1
##########                         Heavy_Atoms:                  30
##########                          Grid_Score:          -32.593327
##########                     Grid_vdw_energy:          -30.901749
##########                      Grid_es_energy:           -1.691579
##########           Internal_energy_repulsive:            8.806496

@<TRIPOS>MOLECULE
ZINC000031496632
 55 58 1 0 0
SMALL
USER_CHARGES


@<TRIPOS>ATOM
      1 C1          1.6383    1.3011   47.5907 C.3     1  ZINC000031496632   -0.1600
      2 C2          1.0119    2.6878   47.7507 C.3     1  ZINC000031496632    0.1600
      3 C3          1.2171    3.4914   46.4650 C.3     1  ZINC000031496632   -0.1600
      4 N4         -0.4222    2.5483   48.0157 N.pl3   1  ZINC000031496632   -0.3900
      5 N5         -1.3934    2.2205   47.0647 N.2     1  ZINC000031496632   -0.2300
      6 C6         -2.5693    2.1764   47.6228 C.2     1  ZINC000031496632    0.0800
      7 C7         -2.4006    2.4911   49.0372 C.ar    1  ZINC000031496632   -0.2100
      8 C8         -3.2763    2.5974   50.1237 C.ar    1  ZINC000031496632    0.0100
      9 C9         -2.7426    2.9255   51.3602 C.ar    1  ZINC000031496632    0.0500
     10 N10        -3.5749    3.0443   52.4809 N.am    1  ZINC000031496632   -0.6600
     11 C11        -3.7209    4.2384   53.0884 C.2     1  ZINC000031496632    0.5500
     12 O12        -3.1300    5.2130   52.6637 O.2     1  ZINC000031496632   -0.4900
     13 C13        -4.5963    4.3633   54.2672 C.ar    1  ZINC000031496632   -0.1300
     14 C14        -5.9835    4.2777   54.1249 C.ar    1  ZINC000031496632   -0.0600
     15 C15        -6.7966    4.3955   55.2310 C.ar    1  ZINC000031496632   -0.1400
     16 C16        -6.2463    4.5991   56.4867 C.ar    1  ZINC000031496632   -0.0600
     17 C17        -4.8786    4.6866   56.6446 C.ar    1  ZINC000031496632   -0.1500
     18 C18        -4.0412    4.5636   55.5420 C.ar    1  ZINC000031496632   -0.0600
     19 S19        -2.2939    4.6741   55.7399 S.3     1  ZINC000031496632    0.0900
     20 C20        -1.7660    2.9397   55.6807 C.3     1  ZINC000031496632   -0.2000
     21 C21        -0.3103    2.8445   56.0590 C.2     1  ZINC000031496632    0.5500
     22 O22         0.5433    2.8767   55.1982 O.2     1  ZINC000031496632   -0.5200
     23 N23         0.0428    2.7234   57.3541 N.am    1  ZINC000031496632   -0.6200
     24 C24         1.4193    2.6293   57.8618 C.3     1  ZINC000031496632    0.1000
     25 C25         1.3328    2.4784   59.3952 C.3     1  ZINC000031496632   -0.1300
     26 C26        -0.1018    1.9277   59.6098 C.3     1  ZINC000031496632   -0.1300
     27 C27        -0.8873    2.6698   58.4968 C.3     1  ZINC000031496632    0.1000
     28 C28        -1.3697    3.1357   51.4777 C.ar    1  ZINC000031496632    0.1600
     29 N29        -0.5678    3.0301   50.4413 N.ar    1  ZINC000031496632   -0.4900
     30 C30        -1.0232    2.7125   49.2359 C.ar    1  ZINC000031496632    0.3000
     31 H31         2.7052    1.4048   47.3935 H       1  ZINC000031496632    0.0800
     32 H32         1.4921    0.7285   48.5067 H       1  ZINC000031496632    0.0600
     33 H33         1.1637    0.7818   46.7581 H       1  ZINC000031496632    0.0700
     34 H34         1.4866    3.2070   48.5833 H       1  ZINC000031496632    0.1100
     35 H35         2.2841    3.5951   46.2677 H       1  ZINC000031496632    0.0800
     36 H36         0.7425    2.9721   45.6323 H       1  ZINC000031496632    0.0700
     37 H37         0.7709    4.4793   46.5788 H       1  ZINC000031496632    0.0600
     38 H38        -3.5016    1.9483   47.1274 H       1  ZINC000031496632    0.2000
     39 H39        -4.3363    2.4292   50.0024 H       1  ZINC000031496632    0.1500
     40 H40        -4.0461    2.2670   52.8196 H       1  ZINC000031496632    0.4100
     41 H41        -6.4181    4.1198   53.1489 H       1  ZINC000031496632    0.1300
     42 H42        -7.8687    4.3289   55.1189 H       1  ZINC000031496632    0.1300
     43 H43        -6.8926    4.6904   57.3472 H       1  ZINC000031496632    0.1300
     44 H44        -4.4580    4.8460   57.6264 H       1  ZINC000031496632    0.1300
     45 H45        -2.3623    2.3544   56.3807 H       1  ZINC000031496632    0.1100
     46 H46        -1.9053    2.5517   54.6717 H       1  ZINC000031496632    0.1100
     47 H47         1.9145    1.7590   57.4310 H       1  ZINC000031496632    0.0700
     48 H48         1.9704    3.5350   57.6088 H       1  ZINC000031496632    0.0700
     49 H49         2.0766    1.7676   59.7554 H       1  ZINC000031496632    0.0900
     50 H50         1.4523    3.4448   59.8851 H       1  ZINC000031496632    0.0800
     51 H51        -0.1323    0.8483   59.4610 H       1  ZINC000031496632    0.0800
     52 H52        -0.4793    2.1953   60.5967 H       1  ZINC000031496632    0.0900
     53 H53        -1.1517    3.6750   58.8248 H       1  ZINC000031496632    0.0700
     54 H54        -1.7827    2.1100   58.2268 H       1  ZINC000031496632    0.0800
     55 H55        -0.9554    3.3913   52.4418 H       1  ZINC000031496632    0.1700
@<TRIPOS>BOND
     1     1     2    1
     2     1    31    1
     3     1    32    1
     4     1    33    1
     5     2     3    1
     6     2     4    1
     7     2    34    1
     8     3    35    1
     9     3    36    1
    10     3    37    1
    11     4    30    1
    12     4     5    1
    13     5     6    2
    14     6     7    1
    15     6    38    1
    16     7    30   ar
    17     7     8   ar
    18     8     9   ar
    19     8    39    1
    20     9    10    1
    21     9    28   ar
    22    10    11   am
    23    10    40    1
    24    11    12    2
    25    11    13    1
    26    13    18   ar
    27    13    14   ar
    28    14    15   ar
    29    14    41    1
    30    15    16   ar
    31    15    42    1
    32    16    17   ar
    33    16    43    1
    34    17    18   ar
    35    17    44    1
    36    18    19    1
    37    19    20    1
    38    20    21    1
    39    20    45    1
    40    20    46    1
    41    21    22    2
    42    21    23   am
    43    23    27    1
    44    23    24    1
    45    24    25    1
    46    24    47    1
    47    24    48    1
    48    25    26    1
    49    25    49    1
    50    25    50    1
    51    26    27    1
    52    26    51    1
    53    26    52    1
    54    27    53    1
    55    27    54    1
    56    28    29   ar
    57    28    55    1
    58    29    30   ar
@<TRIPOS>SUBSTRUCTURE
     1 ZINC000031496632        1 TEMP              0 ****  ****    0 ROOT


##########                                Name:    ZINC000460972051
##########                DOCK_Rotatable_Bonds:                  10
##########                         Heavy_Atoms:                  29
##########                    Molecular_Weight:             417.572
##########                DOCK_Rotatable_Bonds:                  10
##########                       Formal_Charge:         3.31551e-07
##########                     HBond_Acceptors:                   7
##########                        HBond_Donors:                   2
##########                         Heavy_Atoms:                  29
##########                          Grid_Score:          -32.579208
##########                     Grid_vdw_energy:          -31.696556
##########                      Grid_es_energy:           -0.882651
##########           Internal_energy_repulsive:           32.623123

@<TRIPOS>MOLECULE
ZINC000460972051
 60 61 1 0 0
SMALL
USER_CHARGES


@<TRIPOS>ATOM
      1 C1         -2.1547    6.4189   56.2744 C.3     1  ZINC000460972051   -0.1800
      2 C2         -3.2632    5.3760   56.1178 C.3     1  ZINC000460972051    0.1000
      3 N3         -2.9000    4.4328   55.0572 N.am    1  ZINC000460972051   -0.6200
      4 C4         -3.4249    4.5711   53.8237 C.2     1  ZINC000460972051    0.7100
      5 O5         -4.2012    5.4777   53.5914 O.2     1  ZINC000460972051   -0.5800
      6 N6         -3.0895    3.7044   52.8476 N.am    1  ZINC000460972051   -0.7400
      7 C7         -3.6588    3.8556   51.5062 C.3     1  ZINC000460972051    0.2000
      8 H8         -3.6535    4.9091   51.2260 H       1  ZINC000460972051    0.1100
      9 C9         -2.8226    3.0572   50.5042 C.3     1  ZINC000460972051    0.1100
     10 N10        -2.3760    3.9425   49.4258 N.am    1  ZINC000460972051   -1.1200
     11 S11        -1.6161    3.3108   48.0970 S.o2    1  ZINC000460972051    2.7000
     12 O12        -2.4720    2.2961   47.5898 O.2     1  ZINC000460972051   -0.9500
     13 O13        -1.1783    4.4177   47.3209 O.2     1  ZINC000460972051   -0.9600
     14 C14        -0.1613    2.4959   48.6662 C.ar    1  ZINC000460972051   -0.6900
     15 C15         0.3236    2.7533   49.9345 C.ar    1  ZINC000460972051   -0.0100
     16 C16         1.4652    2.1139   50.3812 C.ar    1  ZINC000460972051   -0.1500
     17 C17         2.1212    1.2169   49.5595 C.ar    1  ZINC000460972051   -0.0200
     18 C18         3.3658    0.5203   50.0461 C.3     1  ZINC000460972051   -0.1300
     19 C19         1.6354    0.9583   48.2912 C.ar    1  ZINC000460972051   -0.1500
     20 C20         0.4920    1.5947   47.8461 C.ar    1  ZINC000460972051    0.0300
     21 C21        -0.0376    1.3128   46.4637 C.3     1  ZINC000460972051   -0.1700
     22 C22        -5.0754    3.3415   51.5007 C.ar    1  ZINC000460972051   -0.1000
     23 C23        -6.1292    4.2211   51.3372 C.ar    1  ZINC000460972051   -0.1000
     24 C24        -7.4287    3.7496   51.3322 C.ar    1  ZINC000460972051   -0.1200
     25 C25        -7.6743    2.3985   51.4903 C.ar    1  ZINC000460972051   -0.1200
     26 C26        -6.6205    1.5188   51.6529 C.ar    1  ZINC000460972051   -0.1200
     27 C27        -5.3207    1.9898   51.6536 C.ar    1  ZINC000460972051   -0.1000
     28 C28        -1.9662    3.3394   55.3376 C.3     1  ZINC000460972051    0.1500
     29 C29        -0.5590    3.7438   54.8932 C.3     1  ZINC000460972051   -0.1600
     30 C30        -1.9618    3.0446   56.8389 C.3     1  ZINC000460972051   -0.1600
     31 H31        -2.4249    7.1205   57.0635 H       1  ZINC000460972051    0.0700
     32 H32        -1.2212    5.9204   56.5354 H       1  ZINC000460972051    0.0600
     33 H33        -2.0284    6.9585   55.3359 H       1  ZINC000460972051    0.0700
     34 H34        -3.3895    4.8362   57.0564 H       1  ZINC000460972051    0.0700
     35 H35        -4.1968    5.8744   55.8568 H       1  ZINC000460972051    0.0900
     36 H36        -2.4712    2.9804   53.0332 H       1  ZINC000460972051    0.4000
     37 H37        -1.9546    2.6348   51.0104 H       1  ZINC000460972051    0.0900
     38 H38        -3.4272    2.2521   50.0864 H       1  ZINC000460972051    0.0900
     39 H39        -2.5254    4.8988   49.4901 H       1  ZINC000460972051    0.4200
     40 H40        -0.1889    3.4544   50.5766 H       1  ZINC000460972051    0.1400
     41 H41         1.8446    2.3157   51.3720 H       1  ZINC000460972051    0.1300
     42 H42         3.0910   -0.4122   50.5391 H       1  ZINC000460972051    0.0800
     43 H43         4.0167    0.3052   49.1987 H       1  ZINC000460972051    0.0700
     44 H44         3.8899    1.1641   50.7524 H       1  ZINC000460972051    0.0700
     45 H45         2.1477    0.2571   47.6492 H       1  ZINC000460972051    0.1300
     46 H46        -0.8168    0.5528   46.5211 H       1  ZINC000460972051    0.0900
     47 H47        -0.4525    2.2273   46.0400 H       1  ZINC000460972051    0.1000
     48 H48         0.7735    0.9542   45.8299 H       1  ZINC000460972051    0.0900
     49 H49        -5.9374    5.2767   51.2137 H       1  ZINC000460972051    0.1200
     50 H50        -8.2520    4.4369   51.2052 H       1  ZINC000460972051    0.1200
     51 H51        -8.6896    2.0302   51.4871 H       1  ZINC000460972051    0.1200
     52 H52        -6.8123    0.4632   51.7767 H       1  ZINC000460972051    0.1200
     53 H53        -4.4974    1.3025   51.7807 H       1  ZINC000460972051    0.1200
     54 H54        -2.2768    2.4477   54.7932 H       1  ZINC000460972051    0.1000
     55 H55        -0.5620    3.9538   53.8237 H       1  ZINC000460972051    0.0600
     56 H56        -0.2483    4.6355   55.4376 H       1  ZINC000460972051    0.0600
     57 H57         0.1358    2.9303   55.1019 H       1  ZINC000460972051    0.0700
     58 H58        -2.9642    2.7565   57.1555 H       1  ZINC000460972051    0.0600
     59 H59        -1.2671    2.2311   57.0475 H       1  ZINC000460972051    0.0700
     60 H60        -1.6511    3.9363   57.3833 H       1  ZINC000460972051    0.0600
@<TRIPOS>BOND
     1     1     2    1
     2     1    31    1
     3     1    32    1
     4     1    33    1
     5     2     3    1
     6     2    34    1
     7     2    35    1
     8     3     4   am
     9     3    28    1
    10     4     5    2
    11     4     6   am
    12     6     7    1
    13     6    36    1
    14     7     8    1
    15     7     9    1
    16     7    22    1
    17     9    10    1
    18     9    37    1
    19     9    38    1
    20    10    11   am
    21    10    39    1
    22    11    12    2
    23    11    13    2
    24    11    14    1
    25    14    20   ar
    26    14    15   ar
    27    15    16   ar
    28    15    40    1
    29    16    17   ar
    30    16    41    1
    31    17    18    1
    32    17    19   ar
    33    18    42    1
    34    18    43    1
    35    18    44    1
    36    19    20   ar
    37    19    45    1
    38    20    21    1
    39    21    46    1
    40    21    47    1
    41    21    48    1
    42    22    27   ar
    43    22    23   ar
    44    23    24   ar
    45    23    49    1
    46    24    25   ar
    47    24    50    1
    48    25    26   ar
    49    25    51    1
    50    26    27   ar
    51    26    52    1
    52    27    53    1
    53    28    29    1
    54    28    30    1
    55    28    54    1
    56    29    55    1
    57    29    56    1
    58    29    57    1
    59    30    58    1
    60    30    59    1
    61    30    60    1
@<TRIPOS>SUBSTRUCTURE
     1 ZINC000460972051        1 TEMP              0 ****  ****    0 ROOT


##########                                Name:    ZINC000027473870
##########                DOCK_Rotatable_Bonds:                  10
##########                         Heavy_Atoms:                  31
##########                    Molecular_Weight:             422.502
##########                DOCK_Rotatable_Bonds:                  10
##########                       Formal_Charge:        -7.45058e-08
##########                     HBond_Acceptors:                   7
##########                        HBond_Donors:                   1
##########                         Heavy_Atoms:                  31
##########                          Grid_Score:          -32.553841
##########                     Grid_vdw_energy:          -29.982063
##########                      Grid_es_energy:           -2.571779
##########           Internal_energy_repulsive:           15.581162

@<TRIPOS>MOLECULE
ZINC000027473870
 58 60 1 0 0
SMALL
USER_CHARGES


@<TRIPOS>ATOM
      1 C1         -1.8914    5.0352   52.0548 C.3     1  ZINC000027473870   -0.1400
      2 C2         -2.4430    5.0233   50.6278 C.3     1  ZINC000027473870   -0.0800
      3 C3         -3.2843    3.7897   50.4248 C.2     1  ZINC000027473870    0.1700
      4 C4         -4.5257    3.5465   50.9782 C.2     1  ZINC000027473870   -0.2900
      5 C5         -5.2744    4.4441   51.8764 C.2     1  ZINC000027473870    0.6000
      6 O6         -5.6113    5.5472   51.4910 O.2     1  ZINC000027473870   -0.5400
      7 N7         -5.5855    4.0423   53.1246 N.am    1  ZINC000027473870   -0.7200
      8 C8         -6.3311    4.9338   54.0166 C.3     1  ZINC000027473870    0.1600
      9 C9         -6.7962    4.1617   55.2244 C.ar    1  ZINC000027473870   -0.0900
     10 C10        -8.1213    3.7772   55.3277 C.ar    1  ZINC000027473870   -0.1100
     11 C11        -8.5537    3.0706   56.4309 C.ar    1  ZINC000027473870   -0.1100
     12 C12        -7.6510    2.7435   57.4439 C.ar    1  ZINC000027473870   -0.1200
     13 C13        -8.1073    1.9860   58.6289 C.2     1  ZINC000027473870    0.5600
     14 O14        -7.8014    0.8167   58.7575 O.2     1  ZINC000027473870   -0.5300
     15 N15        -8.8623    2.5922   59.5665 N.am    1  ZINC000027473870   -0.6100
     16 C16        -9.2308    4.0015   59.4115 C.3     1  ZINC000027473870    0.1100
     17 C17        -8.2075    4.8788   60.1353 C.3     1  ZINC000027473870   -0.1700
     18 C18        -9.3144    1.8416   60.7406 C.3     1  ZINC000027473870    0.0900
     19 C19       -10.3670    0.8157   60.3158 C.3     1  ZINC000027473870   -0.1800
     20 C20        -6.3155    3.1340   57.3333 C.ar    1  ZINC000027473870   -0.0700
     21 C21        -5.8951    3.8357   56.2223 C.ar    1  ZINC000027473870   -0.1000
     22 C22        -4.9446    2.2761   50.5221 C.2     1  ZINC000027473870    0.0900
     23 N23        -4.0107    1.7964   49.7472 N.2     1  ZINC000027473870   -0.2800
     24 N24        -2.9670    2.7250   49.6662 N.pl3   1  ZINC000027473870   -0.3100
     25 C25        -1.7858    2.5680   48.9272 C.ar    1  ZINC000027473870    0.1300
     26 C26        -0.5587    2.5394   49.5760 C.ar    1  ZINC000027473870   -0.0900
     27 C27         0.6037    2.3843   48.8465 C.ar    1  ZINC000027473870   -0.1300
     28 C28         0.5458    2.2573   47.4687 C.ar    1  ZINC000027473870    0.1100
     29 F29         1.6838    2.1053   46.7567 F       1  ZINC000027473870   -0.1300
     30 C30        -0.6775    2.2857   46.8198 C.ar    1  ZINC000027473870   -0.1400
     31 C31        -1.8423    2.4354   47.5464 C.ar    1  ZINC000027473870   -0.0700
     32 H32        -1.2130    5.8798   52.1751 H       1  ZINC000027473870    0.0700
     33 H33        -2.7155    5.1275   52.7622 H       1  ZINC000027473870    0.0700
     34 H34        -1.3526    4.1067   52.2438 H       1  ZINC000027473870    0.0500
     35 H35        -3.0549    5.9109   50.4673 H       1  ZINC000027473870    0.1200
     36 H36        -1.6153    5.0195   49.9184 H       1  ZINC000027473870    0.0800
     37 H37        -5.3157    3.1629   53.4325 H       1  ZINC000027473870    0.4000
     38 H38        -5.6856    5.7522   54.3350 H       1  ZINC000027473870    0.0800
     39 H39        -7.1951    5.3369   53.4883 H       1  ZINC000027473870    0.0800
     40 H40        -8.8187    4.0309   54.5432 H       1  ZINC000027473870    0.1300
     41 H41        -9.5884    2.7716   56.5107 H       1  ZINC000027473870    0.1500
     42 H42        -9.2455    4.2589   58.3524 H       1  ZINC000027473870    0.0800
     43 H43       -10.2194    4.1677   59.8394 H       1  ZINC000027473870    0.0800
     44 H44        -8.4817    5.9274   60.0200 H       1  ZINC000027473870    0.0700
     45 H45        -8.1929    4.6215   61.1944 H       1  ZINC000027473870    0.0600
     46 H46        -7.2189    4.7125   59.7073 H       1  ZINC000027473870    0.0600
     47 H47        -8.4661    1.3264   61.1912 H       1  ZINC000027473870    0.0800
     48 H48        -9.7491    2.5292   61.4662 H       1  ZINC000027473870    0.0900
     49 H49       -10.8858    0.4408   61.1981 H       1  ZINC000027473870    0.0700
     50 H50       -11.0850    1.2880   59.6454 H       1  ZINC000027473870    0.0700
     51 H51        -9.8800   -0.0128   59.8013 H       1  ZINC000027473870    0.0600
     52 H52        -5.6122    2.8843   58.1140 H       1  ZINC000027473870    0.1300
     53 H53        -4.8620    4.1382   56.1353 H       1  ZINC000027473870    0.1300
     54 H54        -5.8748    1.7875   50.7717 H       1  ZINC000027473870    0.1900
     55 H55        -0.5130    2.6388   50.6505 H       1  ZINC000027473870    0.1500
     56 H56         1.5585    2.3623   49.3509 H       1  ZINC000027473870    0.1500
     57 H57        -0.7206    2.1869   45.7452 H       1  ZINC000027473870    0.1500
     58 H58        -2.7959    2.4570   47.0400 H       1  ZINC000027473870    0.1400
@<TRIPOS>BOND
     1     1     2    1
     2     1    32    1
     3     1    33    1
     4     1    34    1
     5     2     3    1
     6     2    35    1
     7     2    36    1
     8     3    24    1
     9     3     4    2
    10     4     5    1
    11     4    22    1
    12     5     6    2
    13     5     7   am
    14     7     8    1
    15     7    37    1
    16     8     9    1
    17     8    38    1
    18     8    39    1
    19     9    21   ar
    20     9    10   ar
    21    10    11   ar
    22    10    40    1
    23    11    12   ar
    24    11    41    1
    25    12    13    1
    26    12    20   ar
    27    13    14    2
    28    13    15   am
    29    15    16    1
    30    15    18    1
    31    16    17    1
    32    16    42    1
    33    16    43    1
    34    17    44    1
    35    17    45    1
    36    17    46    1
    37    18    19    1
    38    18    47    1
    39    18    48    1
    40    19    49    1
    41    19    50    1
    42    19    51    1
    43    20    21   ar
    44    20    52    1
    45    21    53    1
    46    22    23    2
    47    22    54    1
    48    23    24    1
    49    24    25    1
    50    25    31   ar
    51    25    26   ar
    52    26    27   ar
    53    26    55    1
    54    27    28   ar
    55    27    56    1
    56    28    29    1
    57    28    30   ar
    58    30    31   ar
    59    30    57    1
    60    31    58    1
@<TRIPOS>SUBSTRUCTURE
     1 ZINC000027473870        1 TEMP              0 ****  ****    0 ROOT


##########                                Name:    ZINC000603906271
##########                DOCK_Rotatable_Bonds:                   8
##########                         Heavy_Atoms:                  29
##########                    Molecular_Weight:             391.473
##########                DOCK_Rotatable_Bonds:                   8
##########                       Formal_Charge:           0.0499998
##########                     HBond_Acceptors:                   7
##########                        HBond_Donors:                   3
##########                         Heavy_Atoms:                  29
##########                          Grid_Score:          -32.551292
##########                     Grid_vdw_energy:          -30.296350
##########                      Grid_es_energy:           -2.254943
##########           Internal_energy_repulsive:           22.364763

@<TRIPOS>MOLECULE
ZINC000603906271
 54 56 1 0 0
SMALL
USER_CHARGES


@<TRIPOS>ATOM
      1 C1         -7.4532   -0.4493   52.3460 C.3     1  ZINC000603906271   -0.1600
      2 C2         -7.9054    1.0117   52.3027 C.3     1  ZINC000603906271    0.1300
      3 H3         -8.8733    1.0780   51.8057 H       1  ZINC000603906271    0.1200
      4 N4         -8.0217    1.5276   53.6690 N.am    1  ZINC000603906271   -0.7100
      5 C5         -9.2295    1.5960   54.2630 C.2     1  ZINC000603906271    0.5700
      6 O6        -10.2226    1.2312   53.6645 O.2     1  ZINC000603906271   -0.5300
      7 C7         -9.3467    2.1150   55.6424 C.ar    1  ZINC000603906271   -0.1400
      8 C8        -10.5951    2.1792   56.2633 C.ar    1  ZINC000603906271   -0.0800
      9 C9        -10.6975    2.6641   57.5507 C.ar    1  ZINC000603906271   -0.1200
     10 C10        -9.5662    3.0866   58.2262 C.ar    1  ZINC000603906271   -0.0400
     11 C11        -9.6858    3.6156   59.6322 C.3     1  ZINC000603906271   -0.0400
     12 C12        -8.7303    4.7964   59.8158 C.3     1  ZINC000603906271   -0.1400
     13 C13       -11.1225    4.0785   59.8824 C.3     1  ZINC000603906271   -0.1500
     14 C14        -9.3260    2.5092   60.6258 C.3     1  ZINC000603906271   -0.1400
     15 C15        -8.3257    3.0252   57.6165 C.ar    1  ZINC000603906271   -0.1300
     16 C16        -8.2088    2.5374   56.3313 C.ar    1  ZINC000603906271   -0.0500
     17 C17        -6.8931    1.8285   51.5417 C.2     1  ZINC000603906271    0.5100
     18 O18        -7.1354    2.1939   50.4107 O.2     1  ZINC000603906271   -0.5100
     19 N19        -5.7187    2.1530   52.1176 N.am    1  ZINC000603906271   -0.6700
     20 C20        -4.7788    2.9115   51.4109 C.ar    1  ZINC000603906271    0.1300
     21 C21        -4.5618    4.2410   51.7506 C.ar    1  ZINC000603906271   -0.1200
     22 C22        -3.6342    4.9933   51.0549 C.ar    1  ZINC000603906271   -0.1000
     23 C23        -2.9187    4.4281   50.0185 C.ar    1  ZINC000603906271   -0.0900
     24 C24        -3.1303    3.0951   49.6704 C.ar    1  ZINC000603906271    0.0000
     25 C25        -2.3622    2.4862   48.5561 C.2     1  ZINC000603906271    0.2700
     26 N26        -2.8756    1.8180   47.5465 N.2     1  ZINC000603906271   -0.3000
     27 N27        -1.8000    1.4238   46.7343 N.pl3   1  ZINC000603906271   -0.4800
     28 C28        -0.6847    1.8919   47.3230 C.2     1  ZINC000603906271    0.2700
     29 N29        -1.0313    2.5309   48.4089 N.2     1  ZINC000603906271   -0.5300
     30 C30        -4.0594    2.3347   50.3748 C.ar    1  ZINC000603906271   -0.0800
     31 H31        -6.4854   -0.5155   52.8428 H       1  ZINC000603906271    0.0700
     32 H32        -8.1855   -1.0401   52.8963 H       1  ZINC000603906271    0.0800
     33 H33        -7.3668   -0.8330   51.3294 H       1  ZINC000603906271    0.0700
     34 H34        -7.2293    1.8199   54.1460 H       1  ZINC000603906271    0.4100
     35 H35       -11.4790    1.8504   55.7370 H       1  ZINC000603906271    0.1300
     36 H36       -11.6629    2.7144   58.0325 H       1  ZINC000603906271    0.1300
     37 H37        -8.9866    5.5847   59.1080 H       1  ZINC000603906271    0.0600
     38 H38        -8.8168    5.1791   60.8328 H       1  ZINC000603906271    0.0600
     39 H39        -7.7068    4.4666   59.6375 H       1  ZINC000603906271    0.0600
     40 H40       -11.8032    3.2373   59.7517 H       1  ZINC000603906271    0.0600
     41 H41       -11.2089    4.4612   60.8994 H       1  ZINC000603906271    0.0600
     42 H42       -11.3788    4.8667   59.1746 H       1  ZINC000603906271    0.0600
     43 H43        -8.3025    2.1795   60.4474 H       1  ZINC000603906271    0.0600
     44 H44        -9.4125    2.8918   61.6426 H       1  ZINC000603906271    0.0600
     45 H45       -10.0068    1.6679   60.4949 H       1  ZINC000603906271    0.0600
     46 H46        -7.4465    3.3562   58.1493 H       1  ZINC000603906271    0.1400
     47 H47        -7.2398    2.4895   55.8567 H       1  ZINC000603906271    0.1400
     48 H48        -5.5250    1.8608   53.0221 H       1  ZINC000603906271    0.4200
     49 H49        -5.1195    4.6880   52.5603 H       1  ZINC000603906271    0.1300
     50 H50        -3.4690    6.0265   51.3227 H       1  ZINC000603906271    0.1400
     51 H51        -2.1950    5.0191   49.4767 H       1  ZINC000603906271    0.1400
     52 H52        -1.8512    0.9139   45.9108 H       1  ZINC000603906271    0.4400
     53 H53         0.3240    1.7655   46.9582 H       1  ZINC000603906271    0.2300
     54 H54        -4.2268    1.3015   50.1090 H       1  ZINC000603906271    0.1500
@<TRIPOS>BOND
     1     1     2    1
     2     1    31    1
     3     1    32    1
     4     1    33    1
     5     2     3    1
     6     2     4    1
     7     2    17    1
     8     4     5   am
     9     4    34    1
    10     5     6    2
    11     5     7    1
    12     7    16   ar
    13     7     8   ar
    14     8     9   ar
    15     8    35    1
    16     9    10   ar
    17     9    36    1
    18    10    11    1
    19    10    15   ar
    20    11    12    1
    21    11    13    1
    22    11    14    1
    23    12    37    1
    24    12    38    1
    25    12    39    1
    26    13    40    1
    27    13    41    1
    28    13    42    1
    29    14    43    1
    30    14    44    1
    31    14    45    1
    32    15    16   ar
    33    15    46    1
    34    16    47    1
    35    17    18    2
    36    17    19   am
    37    19    20    1
    38    19    48    1
    39    20    30   ar
    40    20    21   ar
    41    21    22   ar
    42    21    49    1
    43    22    23   ar
    44    22    50    1
    45    23    24   ar
    46    23    51    1
    47    24    25    1
    48    24    30   ar
    49    25    29    1
    50    25    26    2
    51    26    27    1
    52    27    28    1
    53    27    52    1
    54    28    29    2
    55    28    53    1
    56    30    54    1
@<TRIPOS>SUBSTRUCTURE
     1 ZINC000603906271        1 TEMP              0 ****  ****    0 ROOT


##########                                Name:    ZINC000621594459
##########                DOCK_Rotatable_Bonds:                  10
##########                         Heavy_Atoms:                  25
##########                    Molecular_Weight:             389.497
##########                DOCK_Rotatable_Bonds:                  10
##########                       Formal_Charge:         -7.7486e-07
##########                     HBond_Acceptors:                  10
##########                        HBond_Donors:                   3
##########                         Heavy_Atoms:                  25
##########                          Grid_Score:          -32.536999
##########                     Grid_vdw_energy:          -33.164444
##########                      Grid_es_energy:            0.627446
##########           Internal_energy_repulsive:           11.872605

@<TRIPOS>MOLECULE
ZINC000621594459
 48 49 1 0 0
SMALL
USER_CHARGES


@<TRIPOS>ATOM
      1 C1          3.1672   -1.7592   49.7889 C.3     1  ZINC000621594459   -0.1600
      2 C2          3.1851   -0.2604   49.4819 C.3     1  ZINC000621594459    0.1300
      3 C3          4.5788    0.1446   48.9980 C.3     1  ZINC000621594459   -0.1800
      4 N4          2.2005    0.0361   48.4384 N.am    1  ZINC000621594459   -1.1100
      5 S5          1.4199    1.4964   48.4273 S.o2    1  ZINC000621594459    2.6200
      6 O6          0.6644    1.4992   49.6308 O.2     1  ZINC000621594459   -0.9500
      7 O7          2.4551    2.4454   48.2100 O.2     1  ZINC000621594459   -0.9400
      8 C8          0.3215    1.4116   46.9862 C.3     1  ZINC000621594459   -0.6600
      9 C9         -0.4408    2.7310   46.8476 C.3     1  ZINC000621594459    0.1300
     10 N10        -1.0773    3.0637   48.1244 N.am    1  ZINC000621594459   -0.7200
     11 C11        -2.2232    2.4531   48.4855 C.2     1  ZINC000621594459    0.5600
     12 O12        -2.7278    1.6251   47.7525 O.2     1  ZINC000621594459   -0.5200
     13 C13        -2.8664    2.7901   49.7734 C.ar    1  ZINC000621594459   -0.1500
     14 C14        -2.1867    3.5642   50.7148 C.ar    1  ZINC000621594459   -0.0300
     15 C15        -2.7928    3.8756   51.9146 C.ar    1  ZINC000621594459   -0.1400
     16 C16        -4.0714    3.4218   52.1853 C.ar    1  ZINC000621594459    0.0100
     17 C17        -4.7506    2.6535   51.2563 C.ar    1  ZINC000621594459   -0.6800
     18 S18        -6.3785    2.0801   51.6115 S.o2    1  ZINC000621594459    2.7000
     19 O19        -6.5008    0.8085   50.9890 O.2     1  ZINC000621594459   -0.9400
     20 O20        -6.5824    2.2875   53.0024 O.2     1  ZINC000621594459   -0.9500
     21 N21        -7.4346    3.0873   50.8287 N.am    1  ZINC000621594459   -1.0900
     22 C22        -7.4494    4.5186   51.1409 C.3     1  ZINC000621594459    0.0800
     23 C23        -8.6767    5.3233   50.7082 C.3     1  ZINC000621594459   -0.1800
     24 C24        -8.4547    5.0030   52.1877 C.3     1  ZINC000621594459   -0.1900
     25 C25        -4.1585    2.3402   50.0506 C.ar    1  ZINC000621594459    0.0400
     26 H26         3.8998   -1.9798   50.5653 H       1  ZINC000621594459    0.0700
     27 H27         2.1743   -2.0477   50.1337 H       1  ZINC000621594459    0.0700
     28 H28         3.4150   -2.3179   48.8864 H       1  ZINC000621594459    0.0600
     29 H29         2.9373    0.2983   50.3845 H       1  ZINC000621594459    0.0900
     30 H30         4.8266   -0.4141   48.0954 H       1  ZINC000621594459    0.0700
     31 H31         4.5915    1.2123   48.7791 H       1  ZINC000621594459    0.0600
     32 H32         5.3114   -0.0760   49.7744 H       1  ZINC000621594459    0.0700
     33 H33         2.0058   -0.6232   47.7539 H       1  ZINC000621594459    0.4200
     34 H34         0.9136    1.2380   46.0878 H       1  ZINC000621594459    0.1400
     35 H35        -0.3877    0.5944   47.1176 H       1  ZINC000621594459    0.1400
     36 H36         0.2534    3.5242   46.5701 H       1  ZINC000621594459    0.0900
     37 H37        -1.2044    2.6301   46.0763 H       1  ZINC000621594459    0.0900
     38 H38        -0.6739    3.7235   48.7100 H       1  ZINC000621594459    0.4000
     39 H39        -1.1883    3.9185   50.5050 H       1  ZINC000621594459    0.1300
     40 H40        -2.2680    4.4746   52.6440 H       1  ZINC000621594459    0.1400
     41 H41        -4.5412    3.6681   53.1261 H       1  ZINC000621594459    0.1500
     42 H42        -8.0433    2.7296   50.1636 H       1  ZINC000621594459    0.4200
     43 H43        -6.4812    5.0179   51.1040 H       1  ZINC000621594459    0.1400
     44 H44        -8.5160    6.3523   50.3863 H       1  ZINC000621594459    0.1100
     45 H45        -9.4730    4.7878   50.1912 H       1  ZINC000621594459    0.1000
     46 H46        -9.1050    4.2566   52.6441 H       1  ZINC000621594459    0.1000
     47 H47        -8.1480    5.8211   52.8393 H       1  ZINC000621594459    0.1000
     48 H48        -4.6898    1.7408   49.3262 H       1  ZINC000621594459    0.1600
@<TRIPOS>BOND
     1     1     2    1
     2     1    26    1
     3     1    27    1
     4     1    28    1
     5     2     3    1
     6     2     4    1
     7     2    29    1
     8     3    30    1
     9     3    31    1
    10     3    32    1
    11     4     5   am
    12     4    33    1
    13     5     6    2
    14     5     7    2
    15     5     8    1
    16     8     9    1
    17     8    34    1
    18     8    35    1
    19     9    10    1
    20     9    36    1
    21     9    37    1
    22    10    11   am
    23    10    38    1
    24    11    12    2
    25    11    13    1
    26    13    25   ar
    27    13    14   ar
    28    14    15   ar
    29    14    39    1
    30    15    16   ar
    31    15    40    1
    32    16    17   ar
    33    16    41    1
    34    17    18    1
    35    17    25   ar
    36    18    19    2
    37    18    20    2
    38    18    21   am
    39    21    22    1
    40    21    42    1
    41    22    24    1
    42    22    23    1
    43    22    43    1
    44    23    24    1
    45    23    44    1
    46    23    45    1
    47    24    46    1
    48    24    47    1
    49    25    48    1
@<TRIPOS>SUBSTRUCTURE
     1 ZINC000621594459        1 TEMP              0 ****  ****    0 ROOT


##########                                Name:    ZINC000504243286
##########                DOCK_Rotatable_Bonds:                   7
##########                         Heavy_Atoms:                  29
##########                    Molecular_Weight:             408.337
##########                DOCK_Rotatable_Bonds:                   7
##########                       Formal_Charge:           0.0299994
##########                     HBond_Acceptors:                  11
##########                        HBond_Donors:                   3
##########                         Heavy_Atoms:                  29
##########                          Grid_Score:          -32.534534
##########                     Grid_vdw_energy:          -30.226208
##########                      Grid_es_energy:           -2.308326
##########           Internal_energy_repulsive:           11.115934

@<TRIPOS>MOLECULE
ZINC000504243286
 44 46 1 0 0
SMALL
USER_CHARGES


@<TRIPOS>ATOM
      1 O1         -1.0476    1.6207   56.7876 O.2     1  ZINC000504243286   -0.5200
      2 C2         -1.1470    2.7052   57.3216 C.2     1  ZINC000504243286    0.5200
      3 C3         -1.1319    2.8091   58.8250 C.3     1  ZINC000504243286   -0.1600
      4 C4         -0.1633    1.7726   59.3980 C.3     1  ZINC000504243286    0.1300
      5 N5         -0.4760    1.5404   60.8103 N.pl3   1  ZINC000504243286   -0.7200
      6 C6          0.2613    0.6089   61.5449 C.ar    1  ZINC000504243286    0.3100
      7 C7          1.0599   -0.3194   60.8895 C.ar    1  ZINC000504243286   -0.1900
      8 C8          1.7881   -1.2389   61.6189 C.ar    1  ZINC000504243286    0.0200
      9 C9          1.7227   -1.2359   63.0001 C.ar    1  ZINC000504243286   -0.2400
     10 C10         2.5191   -2.2402   63.7926 C.3     1  ZINC000504243286    0.5200
     11 F11         3.6898   -2.5605   63.0971 F       1  ZINC000504243286   -0.1700
     12 F12         2.8506   -1.6948   65.0375 F       1  ZINC000504243286   -0.1700
     13 F13         1.7559   -3.3978   63.9790 F       1  ZINC000504243286   -0.1700
     14 C14         0.9285   -0.3128   63.6558 C.ar    1  ZINC000504243286    0.0400
     15 C15         0.2020    0.6125   62.9329 C.ar    1  ZINC000504243286   -0.1200
     16 N16        -0.6476    1.5999   63.6355 N.pl3   1  ZINC000504243286    0.0400
     17 O17        -0.7343    2.7390   63.2129 O.2     1  ZINC000504243286   -0.1700
     18 O18        -1.2602    1.2735   64.6364 O.2     1  ZINC000504243286   -0.1400
     19 N19        -1.2653    3.8179   56.5704 N.am    1  ZINC000504243286   -0.6700
     20 C20        -1.2793    3.7214   55.1730 C.ar    1  ZINC000504243286    0.1200
     21 C21        -0.0921    3.7950   54.4567 C.ar    1  ZINC000504243286   -0.1000
     22 C22        -0.1026    3.6998   53.0811 C.ar    1  ZINC000504243286   -0.1200
     23 C23        -1.3056    3.5295   52.3989 C.ar    1  ZINC000504243286    0.1300
     24 N24        -1.5700    3.4101   51.0323 N.am    1  ZINC000504243286   -0.6600
     25 C25        -2.8809    3.2584   50.7795 C.2     1  ZINC000504243286    0.5300
     26 O26        -3.3941    3.1317   49.6878 O.2     1  ZINC000504243286   -0.5000
     27 C27        -3.5972    3.2749   52.1131 C.3     1  ZINC000504243286   -0.1200
     28 C28        -2.4887    3.4570   53.1242 C.ar    1  ZINC000504243286   -0.1200
     29 C29        -2.4814    3.5458   54.4971 C.ar    1  ZINC000504243286   -0.0600
     30 H30        -0.8092    3.8084   59.1168 H       1  ZINC000504243286    0.1100
     31 H31        -2.1337    2.6231   59.2120 H       1  ZINC000504243286    0.1100
     32 H32        -0.2623    0.8382   58.8456 H       1  ZINC000504243286    0.0800
     33 H33         0.8585    2.1413   59.3080 H       1  ZINC000504243286    0.0900
     34 H34        -1.1951    2.0335   61.2352 H       1  ZINC000504243286    0.4100
     35 H35         1.1111   -0.3226   59.8107 H       1  ZINC000504243286    0.1600
     36 H36         2.4090   -1.9613   61.1100 H       1  ZINC000504243286    0.1600
     37 H37         0.8796   -0.3131   64.7348 H       1  ZINC000504243286    0.1600
     38 H38        -1.3406    4.6856   56.9974 H       1  ZINC000504243286    0.4200
     39 H39         0.8436    3.9276   54.9793 H       1  ZINC000504243286    0.1400
     40 H40         0.8247    3.7578   52.5305 H       1  ZINC000504243286    0.1300
     41 H41        -0.8860    3.4339   50.3449 H       1  ZINC000504243286    0.4100
     42 H42        -4.2976    4.1088   52.1600 H       1  ZINC000504243286    0.1300
     43 H43        -4.1149    2.3304   52.2801 H       1  ZINC000504243286    0.1300
     44 H44        -3.4080    3.4828   55.0484 H       1  ZINC000504243286    0.1500
@<TRIPOS>BOND
     1     1     2    2
     2     2     3    1
     3     2    19   am
     4     3     4    1
     5     3    30    1
     6     3    31    1
     7     4     5    1
     8     4    32    1
     9     4    33    1
    10     5     6    1
    11     5    34    1
    12     6    15   ar
    13     6     7   ar
    14     7     8   ar
    15     7    35    1
    16     8     9   ar
    17     8    36    1
    18     9    10    1
    19     9    14   ar
    20    10    11    1
    21    10    12    1
    22    10    13    1
    23    14    15   ar
    24    14    37    1
    25    15    16    1
    26    16    17    2
    27    16    18    2
    28    19    20    1
    29    19    38    1
    30    20    29   ar
    31    20    21   ar
    32    21    22   ar
    33    21    39    1
    34    22    23   ar
    35    22    40    1
    36    23    28   ar
    37    23    24    1
    38    24    25   am
    39    24    41    1
    40    25    26    2
    41    25    27    1
    42    27    28    1
    43    27    42    1
    44    27    43    1
    45    28    29   ar
    46    29    44    1
@<TRIPOS>SUBSTRUCTURE
     1 ZINC000504243286        1 TEMP              0 ****  ****    0 ROOT


##########                                Name:    ZINC000912668252
##########                DOCK_Rotatable_Bonds:                  10
##########                         Heavy_Atoms:                  30
##########                    Molecular_Weight:             411.433
##########                DOCK_Rotatable_Bonds:                  10
##########                       Formal_Charge:           0.0199993
##########                     HBond_Acceptors:                   8
##########                        HBond_Donors:                   2
##########                         Heavy_Atoms:                  30
##########                          Grid_Score:          -32.526283
##########                     Grid_vdw_energy:          -32.041782
##########                      Grid_es_energy:           -0.484502
##########           Internal_energy_repulsive:           13.362750

@<TRIPOS>MOLECULE
ZINC000912668252
 52 54 1 0 0
SMALL
USER_CHARGES


@<TRIPOS>ATOM
      1 C1          4.7234   -1.3074   50.7291 C.3     1  ZINC000912668252   -0.1700
      2 C2          4.8935   -1.1875   49.2133 C.3     1  ZINC000912668252    0.1100
      3 N3          4.0435   -0.1054   48.7107 N.am    1  ZINC000912668252   -0.6100
      4 C4          4.6185    1.2162   48.4483 C.3     1  ZINC000912668252    0.1000
      5 C5          5.9903    1.0540   47.7903 C.3     1  ZINC000912668252   -0.1800
      6 C6          2.7324   -0.3258   48.4895 C.2     1  ZINC000912668252    0.5600
      7 O7          2.2553   -1.4224   48.7071 O.2     1  ZINC000912668252   -0.5300
      8 C8          1.8744    0.7663   47.9822 C.ar    1  ZINC000912668252   -0.1100
      9 C9          1.8937    1.1000   46.6270 C.ar    1  ZINC000912668252   -0.1100
     10 C10         1.0915    2.1196   46.1559 C.ar    1  ZINC000912668252   -0.1000
     11 C11         0.2673    2.8131   47.0220 C.ar    1  ZINC000912668252   -0.1200
     12 C12         0.2408    2.4884   48.3732 C.ar    1  ZINC000912668252    0.1400
     13 N13        -0.5959    3.1935   49.2460 N.am    1  ZINC000912668252   -0.6700
     14 C14        -1.9294    3.0026   49.2024 C.2     1  ZINC000912668252    0.5200
     15 O15        -2.4043    2.2199   48.4069 O.2     1  ZINC000912668252   -0.4900
     16 C16        -2.8302    3.7618   50.1422 C.3     1  ZINC000912668252    0.0500
     17 O17        -3.8617    2.8733   50.6472 O.3     1  ZINC000912668252   -0.3300
     18 C18        -4.8327    3.4283   51.4004 C.2     1  ZINC000912668252    0.5400
     19 O19        -4.7812    4.6092   51.6851 O.2     1  ZINC000912668252   -0.4800
     20 C20        -5.9529    2.6062   51.8770 C.2     1  ZINC000912668252    0.0400
     21 C21        -6.8871    2.9966   52.7844 C.2     1  ZINC000912668252   -0.0900
     22 C22        -7.7863    1.9190   52.9684 C.ar    1  ZINC000912668252   -0.1000
     23 C23        -8.9249    1.7422   53.7654 C.ar    1  ZINC000912668252   -0.0900
     24 C24        -9.6030    0.5564   53.7276 C.ar    1  ZINC000912668252    0.0700
     25 F25       -10.7007    0.3879   54.4969 F       1  ZINC000912668252   -0.1400
     26 C26        -9.1730   -0.4784   52.9037 C.ar    1  ZINC000912668252   -0.1100
     27 C27        -8.0564   -0.3272   52.1122 C.ar    1  ZINC000912668252   -0.1000
     28 C28        -7.3493    0.8716   52.1337 C.ar    1  ZINC000912668252    0.1100
     29 N29        -6.2288    1.3148   51.4702 N.pl3   1  ZINC000912668252   -0.5600
     30 C30         1.0386    1.4628   48.8553 C.ar    1  ZINC000912668252   -0.0700
     31 H31         5.3559   -2.1125   51.1031 H       1  ZINC000912668252    0.0700
     32 H32         5.0120   -0.3689   51.2025 H       1  ZINC000912668252    0.0600
     33 H33         3.6812   -1.5263   50.9616 H       1  ZINC000912668252    0.0600
     34 H34         5.9358   -0.9686   48.9809 H       1  ZINC000912668252    0.0800
     35 H35         4.6051   -2.1260   48.7400 H       1  ZINC000912668252    0.0900
     36 H36         3.9597    1.7734   47.7824 H       1  ZINC000912668252    0.0900
     37 H37         4.7281    1.7578   49.3879 H       1  ZINC000912668252    0.0800
     38 H38         6.7400    0.8578   48.5569 H       1  ZINC000912668252    0.0600
     39 H39         5.9606    0.2200   47.0891 H       1  ZINC000912668252    0.0700
     40 H40         6.2476    1.9688   47.2563 H       1  ZINC000912668252    0.0700
     41 H41         2.5366    0.5607   45.9472 H       1  ZINC000912668252    0.1400
     42 H42         1.1082    2.3766   45.1071 H       1  ZINC000912668252    0.1400
     43 H43        -0.3579    3.6101   46.6476 H       1  ZINC000912668252    0.1300
     44 H44        -0.2160    3.8194   49.8822 H       1  ZINC000912668252    0.4200
     45 H45        -2.2433    4.1479   50.9756 H       1  ZINC000912668252    0.1100
     46 H46        -3.2945    4.5917   49.6094 H       1  ZINC000912668252    0.1100
     47 H47        -6.9342    3.9565   53.2770 H       1  ZINC000912668252    0.1700
     48 H48        -9.2655    2.5405   54.4080 H       1  ZINC000912668252    0.1400
     49 H49        -9.7199   -1.4094   52.8848 H       1  ZINC000912668252    0.1400
     50 H50        -7.7299   -1.1367   51.4763 H       1  ZINC000912668252    0.1400
     51 H51        -5.7159    0.8043   50.8244 H       1  ZINC000912668252    0.4300
     52 H52         1.0194    1.2090   49.9049 H       1  ZINC000912668252    0.1400
@<TRIPOS>BOND
     1     1     2    1
     2     1    31    1
     3     1    32    1
     4     1    33    1
     5     2     3    1
     6     2    34    1
     7     2    35    1
     8     3     4    1
     9     3     6   am
    10     4     5    1
    11     4    36    1
    12     4    37    1
    13     5    38    1
    14     5    39    1
    15     5    40    1
    16     6     7    2
    17     6     8    1
    18     8    30   ar
    19     8     9   ar
    20     9    10   ar
    21     9    41    1
    22    10    11   ar
    23    10    42    1
    24    11    12   ar
    25    11    43    1
    26    12    13    1
    27    12    30   ar
    28    13    14   am
    29    13    44    1
    30    14    15    2
    31    14    16    1
    32    16    17    1
    33    16    45    1
    34    16    46    1
    35    17    18    1
    36    18    19    2
    37    18    20    1
    38    20    29    1
    39    20    21    2
    40    21    22    1
    41    21    47    1
    42    22    28   ar
    43    22    23   ar
    44    23    24   ar
    45    23    48    1
    46    24    25    1
    47    24    26   ar
    48    26    27   ar
    49    26    49    1
    50    27    28   ar
    51    27    50    1
    52    28    29    1
    53    29    51    1
    54    30    52    1
@<TRIPOS>SUBSTRUCTURE
     1 ZINC000912668252        1 TEMP              0 ****  ****    0 ROOT


##########                                Name:    ZINC000465392830
##########                DOCK_Rotatable_Bonds:                   8
##########                         Heavy_Atoms:                  29
##########                    Molecular_Weight:             419.588
##########                DOCK_Rotatable_Bonds:                   8
##########                       Formal_Charge:           0.0199996
##########                     HBond_Acceptors:                   7
##########                        HBond_Donors:                   0
##########                         Heavy_Atoms:                  29
##########                          Grid_Score:          -32.390114
##########                     Grid_vdw_energy:          -31.228212
##########                      Grid_es_energy:           -1.161901
##########           Internal_energy_repulsive:           50.118271

@<TRIPOS>MOLECULE
ZINC000465392830
 62 64 1 0 0
SMALL
USER_CHARGES


@<TRIPOS>ATOM
      1 C1         -7.5395    3.9335   56.8428 C.3     1  ZINC000465392830    0.0400
      2 O2         -6.4571    4.8991   56.7749 O.3     1  ZINC000465392830   -0.3600
      3 C3         -5.4585    4.6357   55.9175 C.2     1  ZINC000465392830    0.4600
      4 O4         -5.5198    3.6670   55.1978 O.2     1  ZINC000465392830   -0.4900
      5 C5         -4.2609    5.5481   55.8525 C.3     1  ZINC000465392830    0.1500
      6 H6         -4.5872    6.5880   55.8465 H       1  ZINC000465392830    0.1100
      7 C7         -3.3409    5.2937   57.0651 C.3     1  ZINC000465392830   -0.1100
      8 C8         -1.9196    5.4208   56.4557 C.3     1  ZINC000465392830   -0.0900
      9 H9         -1.6142    6.4652   56.3913 H       1  ZINC000465392830    0.1000
     10 C10        -0.9041    4.6040   57.2573 C.3     1  ZINC000465392830   -0.0800
     11 C11        -0.8860    5.0936   58.7067 C.3     1  ZINC000465392830   -0.1200
     12 C12         0.1295    4.2769   59.5082 C.3     1  ZINC000465392830   -0.1200
     13 C13        -0.2641    2.7987   59.4742 C.3     1  ZINC000465392830   -0.1200
     14 C14        -0.2823    2.3091   58.0248 C.3     1  ZINC000465392830   -0.1200
     15 C15        -1.2977    3.1259   57.2232 C.3     1  ZINC000465392830   -0.1200
     16 C16        -2.1307    4.8160   55.0453 C.3     1  ZINC000465392830    0.1000
     17 N17        -3.4797    5.2621   54.6402 N.am    1  ZINC000465392830   -0.6100
     18 C18        -3.9193    5.3827   53.3719 C.2     1  ZINC000465392830    0.5400
     19 O19        -5.0526    5.7567   53.1558 O.2     1  ZINC000465392830   -0.5300
     20 C20        -3.0026    5.0527   52.2222 C.3     1  ZINC000465392830   -0.1300
     21 C21        -2.6889    3.5552   52.2335 C.3     1  ZINC000465392830   -0.0600
     22 C22        -2.4380    3.0838   50.8243 C.ar    1  ZINC000465392830   -0.2000
     23 C23        -1.1626    3.1192   50.2824 C.ar    1  ZINC000465392830    0.2000
     24 C24        -0.0021    3.6307   51.0964 C.3     1  ZINC000465392830   -0.1100
     25 N25        -0.9764    2.6982   49.0425 N.ar    1  ZINC000465392830   -0.5000
     26 C26        -1.9923    2.2466   48.3206 C.ar    1  ZINC000465392830    0.3000
     27 S27        -1.6991    1.6955   46.6729 S.3     1  ZINC000465392830    0.0000
     28 C28        -0.4025    2.8577   46.1788 C.3     1  ZINC000465392830   -0.1400
     29 N29        -3.2236    2.1992   48.8093 N.ar    1  ZINC000465392830   -0.5300
     30 C30        -3.4767    2.6002   50.0440 C.ar    1  ZINC000465392830    0.2000
     31 C31        -4.8794    2.5432   50.5919 C.3     1  ZINC000465392830   -0.1100
     32 H32        -8.0099    3.8455   55.8635 H       1  ZINC000465392830    0.0600
     33 H33        -7.1431    2.9638   57.1440 H       1  ZINC000465392830    0.0600
     34 H34        -8.2781    4.2665   57.5721 H       1  ZINC000465392830    0.1000
     35 H35        -3.4995    6.0491   57.8347 H       1  ZINC000465392830    0.1000
     36 H36        -3.5001    4.2930   57.4668 H       1  ZINC000465392830    0.0800
     37 H37         0.0868    4.7263   56.8200 H       1  ZINC000465392830    0.0800
     38 H38        -0.6056    6.1466   58.7309 H       1  ZINC000465392830    0.0600
     39 H39        -1.8769    4.9713   59.1440 H       1  ZINC000465392830    0.0700
     40 H40         1.1205    4.3992   59.0710 H       1  ZINC000465392830    0.0600
     41 H41         0.1424    4.6257   60.5409 H       1  ZINC000465392830    0.0600
     42 H42         0.4594    2.2168   60.0452 H       1  ZINC000465392830    0.0600
     43 H43        -1.2550    2.6764   59.9115 H       1  ZINC000465392830    0.0600
     44 H44         0.7087    2.4314   57.5875 H       1  ZINC000465392830    0.0600
     45 H45        -0.5627    1.2560   58.0005 H       1  ZINC000465392830    0.0600
     46 H46        -2.2887    3.0035   57.6604 H       1  ZINC000465392830    0.0700
     47 H47        -1.3107    2.7770   56.1906 H       1  ZINC000465392830    0.0600
     48 H48        -1.3819    5.1993   54.3522 H       1  ZINC000465392830    0.0900
     49 H49        -2.0869    3.7277   55.0888 H       1  ZINC000465392830    0.0800
     50 H50        -3.4893    5.3149   51.2826 H       1  ZINC000465392830    0.1000
     51 H51        -2.0764    5.6187   52.3219 H       1  ZINC000465392830    0.1000
     52 H52        -1.8017    3.3744   52.8405 H       1  ZINC000465392830    0.0900
     53 H53        -3.5340    3.0101   52.6540 H       1  ZINC000465392830    0.0900
     54 H54         0.4522    2.8032   51.6413 H       1  ZINC000465392830    0.0900
     55 H55         0.7378    4.0785   50.4329 H       1  ZINC000465392830    0.0900
     56 H56        -0.3568    4.3803   51.8037 H       1  ZINC000465392830    0.0900
     57 H57        -0.7841    3.8768   46.2437 H       1  ZINC000465392830    0.0900
     58 H58         0.4556    2.7483   46.8418 H       1  ZINC000465392830    0.0900
     59 H59        -0.0985    2.6483   45.1532 H       1  ZINC000465392830    0.1100
     60 H60        -5.0441    1.5770   51.0689 H       1  ZINC000465392830    0.0900
     61 H61        -5.0157    3.3382   51.3249 H       1  ZINC000465392830    0.0900
     62 H62        -5.5929    2.6730   49.7781 H       1  ZINC000465392830    0.0800
@<TRIPOS>BOND
     1     1     2    1
     2     1    32    1
     3     1    33    1
     4     1    34    1
     5     2     3    1
     6     3     4    2
     7     3     5    1
     8     5     6    1
     9     5    17    1
    10     5     7    1
    11     7     8    1
    12     7    35    1
    13     7    36    1
    14     8     9    1
    15     8    10    1
    16     8    16    1
    17    10    15    1
    18    10    11    1
    19    10    37    1
    20    11    12    1
    21    11    38    1
    22    11    39    1
    23    12    13    1
    24    12    40    1
    25    12    41    1
    26    13    14    1
    27    13    42    1
    28    13    43    1
    29    14    15    1
    30    14    44    1
    31    14    45    1
    32    15    46    1
    33    15    47    1
    34    16    17    1
    35    16    48    1
    36    16    49    1
    37    17    18   am
    38    18    19    2
    39    18    20    1
    40    20    21    1
    41    20    50    1
    42    20    51    1
    43    21    22    1
    44    21    52    1
    45    21    53    1
    46    22    30   ar
    47    22    23   ar
    48    23    24    1
    49    23    25   ar
    50    24    54    1
    51    24    55    1
    52    24    56    1
    53    25    26   ar
    54    26    27    1
    55    26    29   ar
    56    27    28    1
    57    28    57    1
    58    28    58    1
    59    28    59    1
    60    29    30   ar
    61    30    31    1
    62    31    60    1
    63    31    61    1
    64    31    62    1
@<TRIPOS>SUBSTRUCTURE
     1 ZINC000465392830        1 TEMP              0 ****  ****    0 ROOT


##########                                Name:     oleObject15.pdb
##########                DOCK_Rotatable_Bonds:                   9
##########                         Heavy_Atoms:                  29
##########                    Molecular_Weight:             395.545
##########                DOCK_Rotatable_Bonds:                   9
##########                       Formal_Charge:         0.000700183
##########                     HBond_Acceptors:                   5
##########                        HBond_Donors:                   1
##########                         Heavy_Atoms:                  29
##########                          Grid_Score:          -32.353359
##########                     Grid_vdw_energy:          -32.258759
##########                      Grid_es_energy:           -0.094600
##########           Internal_energy_repulsive:            8.736309

@<TRIPOS>MOLECULE
oleObject15.pdb
 62 64 1 0 0
SMALL
NO_CHARGES


@<TRIPOS>ATOM
      1 O         -15.4641   -3.3691   59.8140 O.3     1  UNL        -0.3745
      2 C         -15.9973   -3.5677   58.4852 C.3     1  UNL         0.0600
      3 C         -14.9333   -4.2954   57.6310 C.3     1  UNL         0.0217
      4 N         -13.6024   -3.6443   57.6186 N.4     1  UNL        -0.3010
      5 C         -12.5365   -4.4283   56.9535 C.3     1  UNL        -0.0010
      6 C         -11.1547   -3.7533   57.0936 C.3     1  UNL        -0.0289
      7 C         -11.1513   -2.2841   56.6072 C.3     1  UNL         0.0382
      8 C         -12.3289   -1.5089   57.2503 C.3     1  UNL        -0.0289
      9 C         -13.6832   -2.2478   57.1408 C.3     1  UNL        -0.0010
     10 C         -11.1597   -2.1926   55.0610 C.2     1  UNL         0.2156
     11 O         -11.6064   -3.0865   54.3652 O.2     1  UNL        -0.2774
     12 N         -10.6897   -1.0454   54.4345 N.am    1  UNL        -0.3025
     13 C         -10.6188   -0.7749   52.9862 C.3     1  UNL         0.0900
     14 C         -11.9093   -0.1772   52.4285 C.ar    1  UNL        -0.0217
     15 C         -12.6257    0.8048   53.1421 C.ar    1  UNL        -0.0568
     16 C         -13.8172    1.3348   52.6206 C.ar    1  UNL        -0.0619
     17 C         -14.3005    0.8901   51.3801 C.ar    1  UNL        -0.0622
     18 C         -13.5897   -0.0831   50.6605 C.ar    1  UNL        -0.0619
     19 C         -12.3981   -0.6127   51.1822 C.ar    1  UNL        -0.0568
     20 C          -9.4212    0.1027   52.6344 C.ar    1  UNL         0.0652
     21 C          -8.1827   -0.4521   52.2508 C.ar    1  UNL        -0.0383
     22 C          -7.1151    0.4080   51.9476 C.ar    1  UNL        -0.0588
     23 C          -7.3222    1.7930   52.0397 C.ar    1  UNL        -0.0438
     24 C          -8.5880    2.2614   52.4315 C.ar    1  UNL         0.0272
     25 N          -9.6144    1.4370   52.7232 N.ar    1  UNL        -0.2590
     26 C         -16.0788   -2.3975   60.6932 C.3     1  UNL         0.0599
     27 C         -17.6096   -2.6324   60.7385 C.3     1  UNL        -0.0364
     28 C         -15.4616   -2.6691   62.0838 C.3     1  UNL        -0.0364
     29 C         -15.7301   -0.9622   60.2259 C.3     1  UNL        -0.0364
     30 H         -16.2252   -2.6025   58.0170 H       1  UNL         0.0581
     31 H         -16.9180   -4.1607   58.5078 H       1  UNL         0.0581
     32 H         -15.3150   -4.3527   56.6036 H       1  UNL         0.0455
     33 H         -14.8335   -5.3242   57.9994 H       1  UNL         0.0455
     34 H         -12.7757   -4.5521   55.8895 H       1  UNL         0.0431
     35 H         -12.4623   -5.4279   57.3974 H       1  UNL         0.0431
     36 H         -10.4032   -4.3370   56.5496 H       1  UNL         0.0288
     37 H         -10.8630   -3.7768   58.1517 H       1  UNL         0.0288
     38 H         -10.2396   -1.8163   56.9880 H       1  UNL         0.0402
     39 H         -12.4113   -0.5103   56.8028 H       1  UNL         0.0288
     40 H         -12.1077   -1.3572   58.3148 H       1  UNL         0.0288
     41 H         -14.0221   -2.2350   56.0974 H       1  UNL         0.0431
     42 H         -14.4264   -1.6970   57.7315 H       1  UNL         0.0431
     43 H         -10.4555   -0.2774   55.0504 H       1  UNL         0.1504
     44 H         -10.4503   -1.7407   52.4930 H       1  UNL         0.0624
     45 H         -12.2668    1.1520   54.1066 H       1  UNL         0.0626
     46 H         -14.3661    2.0877   53.1788 H       1  UNL         0.0623
     47 H         -15.2223    1.2996   50.9769 H       1  UNL         0.0623
     48 H         -13.9610   -0.4264   49.6991 H       1  UNL         0.0623
     49 H         -11.8548   -1.3647   50.6168 H       1  UNL         0.0626
     50 H          -8.0495   -1.5279   52.1891 H       1  UNL         0.0643
     51 H          -6.1496    0.0098   51.6489 H       1  UNL         0.0624
     52 H          -6.5205    2.4897   51.8133 H       1  UNL         0.0639
     53 H          -8.7865    3.3293   52.5150 H       1  UNL         0.0840
     54 H         -17.8364   -3.6870   60.9416 H       1  UNL         0.0260
     55 H         -18.0892   -2.3544   59.7923 H       1  UNL         0.0260
     56 H         -18.0711   -2.0288   61.5301 H       1  UNL         0.0260
     57 H         -15.6737   -3.6949   62.4117 H       1  UNL         0.0260
     58 H         -15.8675   -1.9816   62.8367 H       1  UNL         0.0260
     59 H         -14.3718   -2.5404   62.0595 H       1  UNL         0.0260
     60 H         -16.2225   -0.7174   59.2767 H       1  UNL         0.0260
     61 H         -14.6469   -0.8479   60.0908 H       1  UNL         0.0260
     62 H         -16.0581   -0.2228   60.9674 H       1  UNL         0.0260
@<TRIPOS>BOND
     1     1     2    1
     2     1    26    1
     3     2     3    1
     4     2    30    1
     5     2    31    1
     6     3     4    1
     7     3    32    1
     8     3    33    1
     9     4     5    1
    10     4     9    1
    11     5     6    1
    12     5    34    1
    13     5    35    1
    14     6     7    1
    15     6    36    1
    16     6    37    1
    17     7     8    1
    18     7    10    1
    19     7    38    1
    20     8     9    1
    21     8    39    1
    22     8    40    1
    23     9    41    1
    24     9    42    1
    25    10    11    2
    26    10    12   am
    27    12    13    1
    28    12    43    1
    29    13    14    1
    30    13    20    1
    31    13    44    1
    32    14    15   ar
    33    14    19   ar
    34    15    16   ar
    35    15    45    1
    36    16    17   ar
    37    16    46    1
    38    17    18   ar
    39    17    47    1
    40    18    19   ar
    41    18    48    1
    42    19    49    1
    43    20    21   ar
    44    20    25   ar
    45    21    22   ar
    46    21    50    1
    47    22    23   ar
    48    22    51    1
    49    23    24   ar
    50    23    52    1
    51    24    25   ar
    52    24    53    1
    53    26    27    1
    54    26    28    1
    55    26    29    1
    56    27    54    1
    57    27    55    1
    58    27    56    1
    59    28    57    1
    60    28    58    1
    61    28    59    1
    62    29    60    1
    63    29    61    1
    64    29    62    1
@<TRIPOS>SUBSTRUCTURE
     1 UNL         1 TEMP              0 ****  ****    0 ROOT


##########                                Name:    ZINC000174621331
##########                DOCK_Rotatable_Bonds:                   8
##########                         Heavy_Atoms:                  25
##########                    Molecular_Weight:             366.438
##########                DOCK_Rotatable_Bonds:                   8
##########                       Formal_Charge:        -5.96046e-08
##########                     HBond_Acceptors:                   8
##########                        HBond_Donors:                   3
##########                         Heavy_Atoms:                  25
##########                          Grid_Score:          -32.344685
##########                     Grid_vdw_energy:          -30.927521
##########                      Grid_es_energy:           -1.417164
##########           Internal_energy_repulsive:           11.181231

@<TRIPOS>MOLECULE
ZINC000174621331
 47 48 1 0 0
SMALL
USER_CHARGES


@<TRIPOS>ATOM
      1 C1         -6.6631    1.0628   51.2135 C.3     1  ZINC000174621331    0.0300
      2 O2         -5.6772    2.0890   51.3434 O.3     1  ZINC000174621331   -0.3800
      3 C3         -4.7210    2.1142   50.2817 C.3     1  ZINC000174621331    0.0500
      4 C4         -3.7190    3.2446   50.5246 C.3     1  ZINC000174621331    0.2400
      5 H5         -4.2496    4.1952   50.5791 H       1  ZINC000174621331    0.1300
      6 N6         -3.0113    3.0074   51.7853 N.am    1  ZINC000174621331   -0.7200
      7 C7         -2.6205    4.0498   52.5450 C.2     1  ZINC000174621331    0.5600
      8 O8         -2.8538    5.1865   52.1836 O.2     1  ZINC000174621331   -0.5300
      9 C9         -1.9079    3.8104   53.8181 C.ar    1  ZINC000174621331   -0.1600
     10 C10        -2.6165    3.7618   55.0194 C.ar    1  ZINC000174621331   -0.0200
     11 C11        -1.9455    3.5376   56.2041 C.ar    1  ZINC000174621331   -0.1100
     12 C12        -2.7090    3.4847   57.5022 C.3     1  ZINC000174621331   -0.1200
     13 C13        -0.5735    3.3608   56.2026 C.ar    1  ZINC000174621331    0.0400
     14 C14         0.1527    3.1158   57.5002 C.3     1  ZINC000174621331   -0.1600
     15 C15         0.1351    3.4074   55.0148 C.ar    1  ZINC000174621331   -0.6800
     16 S16         1.8824    3.1803   55.0241 S.o2    1  ZINC000174621331    2.7000
     17 N17         2.3464    2.8831   53.4625 N.am    1  ZINC000174621331   -1.2500
     18 O18         2.4481    4.4345   55.3791 O.2     1  ZINC000174621331   -0.9500
     19 O19         2.1276    1.9838   55.7503 O.2     1  ZINC000174621331   -0.9600
     20 C20        -0.5242    3.6264   53.8232 C.ar    1  ZINC000174621331    0.0400
     21 C21        -2.7261    3.2877   49.3917 C.2     1  ZINC000174621331   -0.0200
     22 C22        -2.1509    4.3961   48.8915 C.2     1  ZINC000174621331   -0.1900
     23 C23        -1.2938    3.9775   47.8480 C.2     1  ZINC000174621331   -0.2100
     24 C24        -1.3964    2.6383   47.7729 C.2     1  ZINC000174621331    0.0000
     25 C25        -0.6605    1.7511   46.8021 C.3     1  ZINC000174621331   -0.0800
     26 O26        -2.2608    2.2255   48.7142 O.3     1  ZINC000174621331   -0.1600
     27 H27        -7.2166    1.2061   50.2854 H       1  ZINC000174621331    0.0400
     28 H28        -6.1739    0.0888   51.1979 H       1  ZINC000174621331    0.0400
     29 H29        -7.3508    1.1106   52.0578 H       1  ZINC000174621331    0.0900
     30 H30        -4.1925    1.1617   50.2460 H       1  ZINC000174621331    0.0700
     31 H31        -5.2341    2.2809   49.3346 H       1  ZINC000174621331    0.0700
     32 H32        -2.8241    2.1002   52.0732 H       1  ZINC000174621331    0.4100
     33 H33        -3.6877    3.8997   55.0219 H       1  ZINC000174621331    0.1400
     34 H34        -3.0234    2.4594   57.6974 H       1  ZINC000174621331    0.0800
     35 H35        -2.0690    3.8294   58.3145 H       1  ZINC000174621331    0.0800
     36 H36        -3.5869    4.1272   57.4339 H       1  ZINC000174621331    0.0700
     37 H37         0.1971    2.0443   57.6950 H       1  ZINC000174621331    0.1100
     38 H38         1.1647    3.5149   57.4311 H       1  ZINC000174621331    0.0700
     39 H39        -0.3785    3.6112   58.3129 H       1  ZINC000174621331    0.0900
     40 H40         1.9904    2.1154   52.9885 H       1  ZINC000174621331    0.4200
     41 H41         2.9743    3.4767   53.0218 H       1  ZINC000174621331    0.4200
     42 H42         0.0300    3.6622   52.8968 H       1  ZINC000174621331    0.1600
     43 H43        -2.3133    5.4110   49.2231 H       1  ZINC000174621331    0.1500
     44 H44        -0.6756    4.6113   47.2295 H       1  ZINC000174621331    0.1500
     45 H45         0.2877    1.4405   47.2407 H       1  ZINC000174621331    0.0800
     46 H46        -1.2654    0.8712   46.5838 H       1  ZINC000174621331    0.0800
     47 H47        -0.4715    2.3001   45.8796 H       1  ZINC000174621331    0.0900
@<TRIPOS>BOND
     1     1     2    1
     2     1    27    1
     3     1    28    1
     4     1    29    1
     5     2     3    1
     6     3     4    1
     7     3    30    1
     8     3    31    1
     9     4     5    1
    10     4     6    1
    11     4    21    1
    12     6     7   am
    13     6    32    1
    14     7     8    2
    15     7     9    1
    16     9    20   ar
    17     9    10   ar
    18    10    11   ar
    19    10    33    1
    20    11    12    1
    21    11    13   ar
    22    12    34    1
    23    12    35    1
    24    12    36    1
    25    13    14    1
    26    13    15   ar
    27    14    37    1
    28    14    38    1
    29    14    39    1
    30    15    16    1
    31    15    20   ar
    32    16    17   am
    33    16    18    2
    34    16    19    2
    35    17    40    1
    36    17    41    1
    37    20    42    1
    38    21    26    1
    39    21    22    2
    40    22    23    1
    41    22    43    1
    42    23    24    2
    43    23    44    1
    44    24    25    1
    45    24    26    1
    46    25    45    1
    47    25    46    1
    48    25    47    1
@<TRIPOS>SUBSTRUCTURE
     1 ZINC000174621331        1 TEMP              0 ****  ****    0 ROOT


##########                                Name:    ZINC000671418508
##########                DOCK_Rotatable_Bonds:                   9
##########                         Heavy_Atoms:                  28
##########                    Molecular_Weight:             405.884
##########                DOCK_Rotatable_Bonds:                   9
##########                       Formal_Charge:         -1.3411e-07
##########                     HBond_Acceptors:                   9
##########                        HBond_Donors:                   2
##########                         Heavy_Atoms:                  28
##########                          Grid_Score:          -32.262604
##########                     Grid_vdw_energy:          -30.264538
##########                      Grid_es_energy:           -1.998066
##########           Internal_energy_repulsive:           18.136545

@<TRIPOS>MOLECULE
ZINC000671418508
 52 54 1 0 0
SMALL
USER_CHARGES


@<TRIPOS>ATOM
      1 C1         -9.5383   -0.1228   59.2073 C.3     1  ZINC000671418508    0.1000
      2 N2         -8.7793    0.8917   58.4717 N.pl3   1  ZINC000671418508   -0.3700
      3 C3         -9.1158    1.4249   57.2786 C.2     1  ZINC000671418508    0.0800
      4 C4         -8.1592    2.3209   56.9427 C.2     1  ZINC000671418508   -0.2700
      5 C5         -8.1275    3.1559   55.6885 C.3     1  ZINC000671418508    0.2000
      6 N6         -7.3257    2.4750   54.6688 N.am    1  ZINC000671418508   -0.6900
      7 C7         -7.6147    2.6407   53.3628 C.2     1  ZINC000671418508    0.5100
      8 O8         -8.5399    3.3527   53.0317 O.2     1  ZINC000671418508   -0.5100
      9 C9         -6.7957    1.9476   52.3225 C.2     1  ZINC000671418508    0.5100
     10 O10        -6.8899    0.7465   52.1768 O.2     1  ZINC000671418508   -0.5200
     11 N11        -5.9523    2.6565   51.5461 N.am    1  ZINC000671418508   -0.5800
     12 C12        -5.8183    4.1119   51.7101 C.3     1  ZINC000671418508    0.0800
     13 C13        -4.3302    4.4514   51.8459 C.3     1  ZINC000671418508    0.0400
     14 N14        -3.5959    3.8845   50.7069 N.3     1  ZINC000671418508   -0.5200
     15 C15        -2.1966    4.3314   50.7076 C.3     1  ZINC000671418508    0.1300
     16 H16        -1.7831    4.2293   51.7109 H       1  ZINC000671418508    0.0600
     17 C17        -2.1291    5.7974   50.2749 C.3     1  ZINC000671418508    0.0900
     18 O18        -1.1368    6.4767   51.0468 O.3     1  ZINC000671418508   -0.5500
     19 C19        -1.3992    3.4871   49.7473 C.ar    1  ZINC000671418508   -0.0800
     20 C20        -0.3614    2.7024   50.2146 C.ar    1  ZINC000671418508   -0.0600
     21 C21         0.3704    1.9278   49.3343 C.ar    1  ZINC000671418508   -0.1200
     22 C22         0.0640    1.9378   47.9851 C.ar    1  ZINC000671418508   -0.0300
     23 Cl23        0.9823    0.9648   46.8790 Cl      1  ZINC000671418508   -0.0700
     24 C24        -0.9747    2.7233   47.5180 C.ar    1  ZINC000671418508   -0.1200
     25 C25        -1.7093    3.4931   48.4001 C.ar    1  ZINC000671418508   -0.1100
     26 C26        -3.6802    2.4179   50.6953 C.3     1  ZINC000671418508    0.0400
     27 C27        -5.1371    1.9943   50.5164 C.3     1  ZINC000671418508    0.1100
     28 C28        -7.2054    2.3359   57.9656 C.2     1  ZINC000671418508    0.0700
     29 N29        -7.5792    1.4839   58.8855 N.2     1  ZINC000671418508   -0.2900
     30 H30       -10.2560    0.3668   59.8656 H       1  ZINC000671418508    0.0800
     31 H31       -10.0695   -0.7617   58.5016 H       1  ZINC000671418508    0.0900
     32 H32        -8.8542   -0.7283   59.8018 H       1  ZINC000671418508    0.0900
     33 H33        -9.9916    1.1799   56.6960 H       1  ZINC000671418508    0.1800
     34 H34        -9.1435    3.2949   55.3189 H       1  ZINC000671418508    0.0800
     35 H35        -7.6852    4.1272   55.9097 H       1  ZINC000671418508    0.0800
     36 H36        -6.5870    1.9049   54.9334 H       1  ZINC000671418508    0.4100
     37 H37        -6.2312    4.6183   50.8377 H       1  ZINC000671418508    0.0800
     38 H38        -6.3497    4.4298   52.6072 H       1  ZINC000671418508    0.1400
     39 H39        -4.2038    5.5340   51.8577 H       1  ZINC000671418508    0.0900
     40 H40        -3.9440    4.0296   52.7739 H       1  ZINC000671418508    0.0400
     41 H41        -1.8681    5.8527   49.2181 H       1  ZINC000671418508    0.0500
     42 H42        -3.0991    6.2684   50.4348 H       1  ZINC000671418508    0.0500
     43 H43        -1.3502    6.5469   51.9874 H       1  ZINC000671418508    0.3800
     44 H44        -0.1220    2.6949   51.2677 H       1  ZINC000671418508    0.1400
     45 H45         1.1813    1.3152   49.6995 H       1  ZINC000671418508    0.1300
     46 H46        -1.2141    2.7318   46.4649 H       1  ZINC000671418508    0.1300
     47 H47        -2.5205    4.1060   48.0356 H       1  ZINC000671418508    0.1300
     48 H48        -3.0823    2.0258   49.8725 H       1  ZINC000671418508    0.0900
     49 H49        -3.3032    2.0245   51.6392 H       1  ZINC000671418508    0.0400
     50 H50        -5.2194    0.9124   50.6217 H       1  ZINC000671418508    0.1000
     51 H51        -5.4880    2.2966   49.5297 H       1  ZINC000671418508    0.0800
     52 H52        -6.3164    2.9486   57.9936 H       1  ZINC000671418508    0.1900
@<TRIPOS>BOND
     1     1     2    1
     2     1    30    1
     3     1    31    1
     4     1    32    1
     5     2    29    1
     6     2     3    1
     7     3     4    2
     8     3    33    1
     9     4     5    1
    10     4    28    1
    11     5     6    1
    12     5    34    1
    13     5    35    1
    14     6     7   am
    15     6    36    1
    16     7     8    2
    17     7     9    1
    18     9    10    2
    19     9    11   am
    20    11    27    1
    21    11    12    1
    22    12    13    1
    23    12    37    1
    24    12    38    1
    25    13    14    1
    26    13    39    1
    27    13    40    1
    28    14    15    1
    29    14    26    1
    30    15    16    1
    31    15    17    1
    32    15    19    1
    33    17    18    1
    34    17    41    1
    35    17    42    1
    36    18    43    1
    37    19    25   ar
    38    19    20   ar
    39    20    21   ar
    40    20    44    1
    41    21    22   ar
    42    21    45    1
    43    22    23    1
    44    22    24   ar
    45    24    25   ar
    46    24    46    1
    47    25    47    1
    48    26    27    1
    49    26    48    1
    50    26    49    1
    51    27    50    1
    52    27    51    1
    53    28    29    2
    54    28    52    1
@<TRIPOS>SUBSTRUCTURE
     1 ZINC000671418508        1 TEMP              0 ****  ****    0 ROOT


##########                                Name:    ZINC000503413572
##########                DOCK_Rotatable_Bonds:                   7
##########                         Heavy_Atoms:                  26
##########                    Molecular_Weight:             355.375
##########                DOCK_Rotatable_Bonds:                   7
##########                       Formal_Charge:        -1.71363e-07
##########                     HBond_Acceptors:                   9
##########                        HBond_Donors:                   1
##########                         Heavy_Atoms:                  26
##########                          Grid_Score:          -32.255360
##########                     Grid_vdw_energy:          -32.546677
##########                      Grid_es_energy:            0.291315
##########           Internal_energy_repulsive:            6.354017

@<TRIPOS>MOLECULE
ZINC000503413572
 44 47 1 0 0
SMALL
USER_CHARGES


@<TRIPOS>ATOM
      1 C1          0.8171    4.1907   46.0508 C.3     1  ZINC000503413572   -0.1200
      2 C2          1.5219    2.8627   46.1538 C.ar    1  ZINC000503413572   -0.0200
      3 C3          2.8050    2.7218   45.6635 C.ar    1  ZINC000503413572   -0.1400
      4 C4          3.4534    1.5015   45.7583 C.ar    1  ZINC000503413572    0.1300
      5 F5          4.7090    1.3656   45.2784 F       1  ZINC000503413572   -0.1300
      6 C6          2.8165    0.4209   46.3448 C.ar    1  ZINC000503413572   -0.1400
      7 C7          1.5330    0.5582   46.8363 C.ar    1  ZINC000503413572   -0.0700
      8 C8          0.8836    1.7817   46.7468 C.ar    1  ZINC000503413572    0.1000
      9 N9         -0.4197    1.9231   47.2460 N.pl3   1  ZINC000503413572   -0.3100
     10 C10        -0.7695    2.1626   48.5282 C.2     1  ZINC000503413572    0.1100
     11 C11        -2.1340    2.2253   48.5601 C.2     1  ZINC000503413572   -0.1000
     12 C12        -2.9581    2.4701   49.7588 C.2     1  ZINC000503413572    0.6100
     13 O13        -2.4497    2.9317   50.7622 O.2     1  ZINC000503413572   -0.5300
     14 N14        -4.2746    2.1819   49.7418 N.am    1  ZINC000503413572   -0.7200
     15 C15        -5.0935    2.4266   50.9317 C.3     1  ZINC000503413572    0.1100
     16 C16        -6.5679    2.2012   50.5913 C.3     1  ZINC000503413572    0.1000
     17 N17        -7.0889    1.0889   51.3898 N.pl3   1  ZINC000503413572   -0.4700
     18 C18        -6.5937   -0.1707   51.4537 C.2     1  ZINC000503413572    0.1500
     19 N19        -7.3496   -0.8437   52.2779 N.2     1  ZINC000503413572   -0.2900
     20 N20        -8.2823   -0.0824   52.7298 N.2     1  ZINC000503413572   -0.2900
     21 C21        -8.1604    1.1125   52.2188 C.2     1  ZINC000503413572    0.2100
     22 C22        -9.0522    2.2960   52.4924 C.3     1  ZINC000503413572   -0.1000
     23 C23        -9.7612    2.3481   53.8471 C.3     1  ZINC000503413572   -0.1500
     24 C24        -8.5944    3.2943   53.5575 C.3     1  ZINC000503413572   -0.1600
     25 N25        -2.5985    2.0263   47.3147 N.2     1  ZINC000503413572   -0.2000
     26 N26        -1.6101    1.8490   46.5088 N.2     1  ZINC000503413572   -0.0400
     27 H27         0.9527    4.7470   46.9783 H       1  ZINC000503413572    0.0900
     28 H28         1.2351    4.7606   45.2209 H       1  ZINC000503413572    0.0800
     29 H29        -0.2465    4.0252   45.8787 H       1  ZINC000503413572    0.0700
     30 H30         3.3031    3.5634   45.2054 H       1  ZINC000503413572    0.1500
     31 H31         3.3235   -0.5299   46.4175 H       1  ZINC000503413572    0.1500
     32 H32         1.0364   -0.2850   47.2933 H       1  ZINC000503413572    0.1500
     33 H33        -0.0996    2.2813   49.3670 H       1  ZINC000503413572    0.2100
     34 H34        -4.6800    1.8125   48.9417 H       1  ZINC000503413572    0.4100
     35 H35        -4.7950    1.7417   51.7253 H       1  ZINC000503413572    0.0800
     36 H36        -4.9507    3.4543   51.2659 H       1  ZINC000503413572    0.0800
     37 H37        -7.1347    3.1053   50.8141 H       1  ZINC000503413572    0.1100
     38 H38        -6.6641    1.9641   49.5317 H       1  ZINC000503413572    0.1100
     39 H39        -5.7334   -0.5481   50.9208 H       1  ZINC000503413572    0.2200
     40 H40        -9.5868    2.6914   51.6286 H       1  ZINC000503413572    0.1200
     41 H41       -10.7626    2.7778   53.8748 H       1  ZINC000503413572    0.1100
     42 H42        -9.5827    1.5263   54.5406 H       1  ZINC000503413572    0.1100
     43 H43        -7.6480    3.0951   54.0605 H       1  ZINC000503413572    0.1000
     44 H44        -8.8280    4.3465   53.3947 H       1  ZINC000503413572    0.1100
@<TRIPOS>BOND
     1     1     2    1
     2     1    27    1
     3     1    28    1
     4     1    29    1
     5     2     8   ar
     6     2     3   ar
     7     3     4   ar
     8     3    30    1
     9     4     5    1
    10     4     6   ar
    11     6     7   ar
    12     6    31    1
    13     7     8   ar
    14     7    32    1
    15     8     9    1
    16     9    26    1
    17     9    10    1
    18    10    11    2
    19    10    33    1
    20    11    12    1
    21    11    25    1
    22    12    13    2
    23    12    14   am
    24    14    15    1
    25    14    34    1
    26    15    16    1
    27    15    35    1
    28    15    36    1
    29    16    17    1
    30    16    37    1
    31    16    38    1
    32    17    21    1
    33    17    18    1
    34    18    19    2
    35    18    39    1
    36    19    20    1
    37    20    21    2
    38    21    22    1
    39    22    24    1
    40    22    23    1
    41    22    40    1
    42    23    24    1
    43    23    41    1
    44    23    42    1
    45    24    43    1
    46    24    44    1
    47    25    26    2
@<TRIPOS>SUBSTRUCTURE
     1 ZINC000503413572        1 TEMP              0 ****  ****    0 ROOT


##########                                Name:    ZINC000410354665
##########                DOCK_Rotatable_Bonds:                   7
##########                         Heavy_Atoms:                  29
##########                    Molecular_Weight:             417.889
##########                DOCK_Rotatable_Bonds:                   7
##########                       Formal_Charge:        -3.72529e-08
##########                     HBond_Acceptors:                   7
##########                        HBond_Donors:                   1
##########                         Heavy_Atoms:                  29
##########                          Grid_Score:          -32.245972
##########                     Grid_vdw_energy:          -31.344303
##########                      Grid_es_energy:           -0.901667
##########           Internal_energy_repulsive:           20.440180

@<TRIPOS>MOLECULE
ZINC000410354665
 53 56 1 0 0
SMALL
USER_CHARGES


@<TRIPOS>ATOM
      1 C1          5.4157    2.3141   56.2807 C.3     1  ZINC000410354665    0.0200
      2 O2          4.3490    1.8616   57.1169 O.3     1  ZINC000410354665   -0.3000
      3 C3          3.0818    2.0990   56.6839 C.ar    1  ZINC000410354665    0.0900
      4 C4          2.8722    2.7083   55.4624 C.ar    1  ZINC000410354665   -0.1100
      5 C5          1.5685    2.9503   55.0203 C.ar    1  ZINC000410354665   -0.1400
      6 C6          1.3389    3.6007   53.7152 C.2     1  ZINC000410354665    0.5700
      7 O7          2.2824    4.0006   53.0609 O.2     1  ZINC000410354665   -0.5300
      8 N8          0.0834    3.7513   53.2491 N.am    1  ZINC000410354665   -0.7200
      9 C9         -0.1444    4.3953   51.9530 C.3     1  ZINC000410354665    0.1700
     10 C10        -1.3565    3.7869   51.2959 C.ar    1  ZINC000410354665   -0.1000
     11 C11        -1.2871    3.3563   49.9844 C.ar    1  ZINC000410354665   -0.0900
     12 C12        -2.3983    2.7995   49.3773 C.ar    1  ZINC000410354665   -0.0300
     13 Cl13       -2.3076    2.2602   47.7297 Cl      1  ZINC000410354665   -0.0400
     14 C14        -3.5853    2.6713   50.0845 C.ar    1  ZINC000410354665    0.0700
     15 O15        -4.6730    2.1285   49.4717 O.3     1  ZINC000410354665   -0.2900
     16 C16        -5.7320    1.6762   50.3225 C.3     1  ZINC000410354665    0.0200
     17 C17        -6.0067    2.7650   51.3685 C.3     1  ZINC000410354665    0.0200
     18 O18        -4.8058    2.9800   52.1178 O.3     1  ZINC000410354665   -0.3000
     19 C19        -3.6531    3.1010   51.4042 C.ar    1  ZINC000410354665    0.0600
     20 C20        -2.5341    3.6553   52.0077 C.ar    1  ZINC000410354665   -0.0900
     21 C21         0.4836    2.5751   55.8158 C.ar    1  ZINC000410354665   -0.0800
     22 C22         0.6996    1.9679   57.0341 C.ar    1  ZINC000410354665   -0.1900
     23 C23         1.9940    1.7221   57.4708 C.ar    1  ZINC000410354665    0.1400
     24 O24         2.2017    1.1236   58.6718 O.3     1  ZINC000410354665   -0.2900
     25 C25         1.0634    0.9586   59.5199 C.3     1  ZINC000410354665    0.0700
     26 C26         1.4412    0.1440   60.7819 C.3     1  ZINC000410354665   -0.1500
     27 C27         0.3586    0.5738   61.8029 C.3     1  ZINC000410354665   -0.1200
     28 C28         0.1526    2.0773   61.5256 C.3     1  ZINC000410354665   -0.1200
     29 C29         0.6007    2.3219   60.0740 C.3     1  ZINC000410354665   -0.1200
     30 H30         5.3437    1.8308   55.3064 H       1  ZINC000410354665    0.0600
     31 H31         5.3465    3.3947   56.1562 H       1  ZINC000410354665    0.0600
     32 H32         6.3707    2.0619   56.7417 H       1  ZINC000410354665    0.1000
     33 H33         3.7137    2.9973   54.8503 H       1  ZINC000410354665    0.1500
     34 H34        -0.6694    3.4335   53.7716 H       1  ZINC000410354665    0.4000
     35 H35        -0.3088    5.4626   52.1014 H       1  ZINC000410354665    0.0800
     36 H36         0.7272    4.2472   51.3155 H       1  ZINC000410354665    0.0900
     37 H37        -0.3639    3.4551   49.4327 H       1  ZINC000410354665    0.1500
     38 H38        -6.6299    1.5006   49.7300 H       1  ZINC000410354665    0.1300
     39 H39        -5.4341    0.7540   50.8214 H       1  ZINC000410354665    0.0800
     40 H40        -6.2988    3.6889   50.8693 H       1  ZINC000410354665    0.0800
     41 H41        -6.8038    2.4398   52.0369 H       1  ZINC000410354665    0.1300
     42 H42        -2.5839    3.9881   53.0340 H       1  ZINC000410354665    0.1400
     43 H43        -0.5246    2.7611   55.4763 H       1  ZINC000410354665    0.1300
     44 H44        -0.1403    1.6786   57.6483 H       1  ZINC000410354665    0.1400
     45 H45         0.2524    0.4720   58.9779 H       1  ZINC000410354665    0.0800
     46 H46         1.3817   -0.9260   60.5831 H       1  ZINC000410354665    0.0700
     47 H47         2.4355    0.4177   61.1350 H       1  ZINC000410354665    0.0800
     48 H48        -0.5669    0.0240   61.6317 H       1  ZINC000410354665    0.0700
     49 H49         0.7125    0.4188   62.8221 H       1  ZINC000410354665    0.0700
     50 H50        -0.8997    2.3374   61.6404 H       1  ZINC000410354665    0.0700
     51 H51         0.7609    2.6698   62.2090 H       1  ZINC000410354665    0.0700
     52 H52         1.4265    3.0332   60.0530 H       1  ZINC000410354665    0.0800
     53 H53        -0.2340    2.7009   59.4844 H       1  ZINC000410354665    0.0700
@<TRIPOS>BOND
     1     1     2    1
     2     1    30    1
     3     1    31    1
     4     1    32    1
     5     2     3    1
     6     3    23   ar
     7     3     4   ar
     8     4     5   ar
     9     4    33    1
    10     5     6    1
    11     5    21   ar
    12     6     7    2
    13     6     8   am
    14     8     9    1
    15     8    34    1
    16     9    10    1
    17     9    35    1
    18     9    36    1
    19    10    20   ar
    20    10    11   ar
    21    11    12   ar
    22    11    37    1
    23    12    13    1
    24    12    14   ar
    25    14    19   ar
    26    14    15    1
    27    15    16    1
    28    16    17    1
    29    16    38    1
    30    16    39    1
    31    17    18    1
    32    17    40    1
    33    17    41    1
    34    18    19    1
    35    19    20   ar
    36    20    42    1
    37    21    22   ar
    38    21    43    1
    39    22    23   ar
    40    22    44    1
    41    23    24    1
    42    24    25    1
    43    25    29    1
    44    25    26    1
    45    25    45    1
    46    26    27    1
    47    26    46    1
    48    26    47    1
    49    27    28    1
    50    27    48    1
    51    27    49    1
    52    28    29    1
    53    28    50    1
    54    28    51    1
    55    29    52    1
    56    29    53    1
@<TRIPOS>SUBSTRUCTURE
     1 ZINC000410354665        1 TEMP              0 ****  ****    0 ROOT


##########                                Name:    ZINC000457806032
##########                DOCK_Rotatable_Bonds:                   8
##########                         Heavy_Atoms:                  24
##########                    Molecular_Weight:             387.911
##########                DOCK_Rotatable_Bonds:                   8
##########                       Formal_Charge:        -1.49012e-07
##########                     HBond_Acceptors:                   9
##########                        HBond_Donors:                   2
##########                         Heavy_Atoms:                  24
##########                          Grid_Score:          -32.233223
##########                     Grid_vdw_energy:          -31.974609
##########                      Grid_es_energy:           -0.258614
##########           Internal_energy_repulsive:           11.190788

@<TRIPOS>MOLECULE
ZINC000457806032
 42 43 1 0 0
SMALL
USER_CHARGES


@<TRIPOS>ATOM
      1 C1          2.6120   -0.9844   49.7240 C.3     1  ZINC000457806032    0.0800
      2 N2          2.1935    0.1401   48.8833 N.am    1  ZINC000457806032   -1.0100
      3 C3          2.1902    0.0027   47.4248 C.3     1  ZINC000457806032    0.0900
      4 S4          1.7240    1.5663   49.5817 S.o2    1  ZINC000457806032    2.7900
      5 O5          0.5204    1.2914   50.2853 O.2     1  ZINC000457806032   -0.9700
      6 O6          2.8811    2.1087   50.2032 O.2     1  ZINC000457806032   -0.9700
      7 N7          1.3222    2.6038   48.3551 N.am    1  ZINC000457806032   -1.1300
      8 C8          0.2473    2.2546   47.4229 C.3     1  ZINC000457806032    0.1100
      9 C9         -0.7585    3.4052   47.3503 C.3     1  ZINC000457806032    0.1100
     10 N10        -1.5075    3.4792   48.6072 N.am    1  ZINC000457806032   -0.7300
     11 C11        -2.5383    2.6395   48.8279 C.2     1  ZINC000457806032    0.5800
     12 O12        -2.8459    1.8192   47.9841 O.2     1  ZINC000457806032   -0.5300
     13 C13        -3.2921    2.7152   50.0905 C.2     1  ZINC000457806032   -0.1500
     14 C14        -2.8443    3.3957   51.1823 C.2     1  ZINC000457806032   -0.2200
     15 S15        -3.9638    3.2742   52.4639 S.3     1  ZINC000457806032    0.2400
     16 C16        -5.0493    2.2866   51.4983 C.2     1  ZINC000457806032   -0.1700
     17 C17        -6.3445    1.7453   51.9638 C.ar    1  ZINC000457806032   -0.0100
     18 C18        -7.2528    2.5733   52.6245 C.ar    1  ZINC000457806032   -0.0900
     19 C19        -8.4594    2.0629   53.0566 C.ar    1  ZINC000457806032   -0.1000
     20 C20        -8.7697    0.7316   52.8361 C.ar    1  ZINC000457806032   -0.0300
     21 Cl21      -10.2898    0.0961   53.3831 Cl      1  ZINC000457806032   -0.0600
     22 C22        -7.8726   -0.0947   52.1806 C.ar    1  ZINC000457806032   -0.1000
     23 C23        -6.6654    0.4060   51.7390 C.ar    1  ZINC000457806032   -0.1000
     24 C24        -4.5320    2.1008   50.2734 C.2     1  ZINC000457806032   -0.0700
     25 H25         3.6863   -0.9273   49.8988 H       1  ZINC000457806032    0.0600
     26 H26         2.0859   -0.9406   50.6777 H       1  ZINC000457806032    0.0800
     27 H27         2.3750   -1.9220   49.2211 H       1  ZINC000457806032    0.0800
     28 H28         1.2189   -0.3673   47.0968 H       1  ZINC000457806032    0.0600
     29 H29         2.3824    0.9736   46.9680 H       1  ZINC000457806032    0.0700
     30 H30         2.9671   -0.7002   47.1243 H       1  ZINC000457806032    0.0700
     31 H31         1.7984    3.4427   48.2539 H       1  ZINC000457806032    0.4200
     32 H32         0.6682    2.0769   46.4333 H       1  ZINC000457806032    0.0700
     33 H33        -0.2566    1.3528   47.7707 H       1  ZINC000457806032    0.0900
     34 H34        -0.2269    4.3429   47.1884 H       1  ZINC000457806032    0.0800
     35 H35        -1.4494    3.2322   46.5252 H       1  ZINC000457806032    0.0800
     36 H36        -1.2613    4.1325   49.2806 H       1  ZINC000457806032    0.4000
     37 H37        -1.9108    3.9367   51.2300 H       1  ZINC000457806032    0.1700
     38 H38        -7.0115    3.6117   52.7976 H       1  ZINC000457806032    0.1400
     39 H39        -9.1631    2.7028   53.5680 H       1  ZINC000457806032    0.1400
     40 H40        -8.1201   -1.1322   52.0115 H       1  ZINC000457806032    0.1400
     41 H41        -5.9665   -0.2393   51.2275 H       1  ZINC000457806032    0.1300
     42 H42        -5.0249    1.5238   49.5050 H       1  ZINC000457806032    0.1600
@<TRIPOS>BOND
     1     1     2    1
     2     1    25    1
     3     1    26    1
     4     1    27    1
     5     2     3    1
     6     2     4   am
     7     3    28    1
     8     3    29    1
     9     3    30    1
    10     4     5    2
    11     4     6    2
    12     4     7   am
    13     7     8    1
    14     7    31    1
    15     8     9    1
    16     8    32    1
    17     8    33    1
    18     9    10    1
    19     9    34    1
    20     9    35    1
    21    10    11   am
    22    10    36    1
    23    11    12    2
    24    11    13    1
    25    13    24    1
    26    13    14    2
    27    14    15    1
    28    14    37    1
    29    15    16    1
    30    16    17    1
    31    16    24    2
    32    17    23   ar
    33    17    18   ar
    34    18    19   ar
    35    18    38    1
    36    19    20   ar
    37    19    39    1
    38    20    21    1
    39    20    22   ar
    40    22    23   ar
    41    22    40    1
    42    23    41    1
    43    24    42    1
@<TRIPOS>SUBSTRUCTURE
     1 ZINC000457806032        1 TEMP              0 ****  ****    0 ROOT


##########                                Name:    ZINC000464139057
##########                DOCK_Rotatable_Bonds:                   9
##########                         Heavy_Atoms:                  30
##########                    Molecular_Weight:              413.56
##########                DOCK_Rotatable_Bonds:                   9
##########                       Formal_Charge:         2.38419e-07
##########                     HBond_Acceptors:                   6
##########                        HBond_Donors:                   2
##########                         Heavy_Atoms:                  30
##########                          Grid_Score:          -32.213245
##########                     Grid_vdw_energy:          -32.151825
##########                      Grid_es_energy:           -0.061420
##########           Internal_energy_repulsive:           18.534765

@<TRIPOS>MOLECULE
ZINC000464139057
 65 67 1 0 0
SMALL
USER_CHARGES


@<TRIPOS>ATOM
      1 C1        -10.6848    1.7664   61.6573 C.3     1  ZINC000464139057   -0.1800
      2 C2         -9.2954    1.1376   61.7794 C.3     1  ZINC000464139057    0.0700
      3 H3         -8.8309    1.4590   62.7116 H       1  ZINC000464139057    0.1200
      4 C4         -9.4223   -0.3901   61.7707 C.3     1  ZINC000464139057    0.0800
      5 N5         -9.8765   -0.8105   60.4356 N.am    1  ZINC000464139057   -0.6100
      6 C6        -10.9279   -1.6410   60.2902 C.2     1  ZINC000464139057    0.5600
      7 O7        -11.5162   -2.0542   61.2702 O.2     1  ZINC000464139057   -0.5300
      8 C8        -11.3659   -2.0495   58.9384 C.ar    1  ZINC000464139057   -0.1200
      9 C9        -12.5147   -1.4914   58.3753 C.ar    1  ZINC000464139057   -0.0900
     10 C10       -12.9175   -1.8766   57.1133 C.ar    1  ZINC000464139057   -0.1000
     11 C11       -12.1858   -2.8141   56.4064 C.ar    1  ZINC000464139057   -0.0900
     12 C12       -12.6322   -3.2304   55.0285 C.3     1  ZINC000464139057    0.1800
     13 N13       -11.6936   -2.7080   54.0325 N.am    1  ZINC000464139057   -0.7400
     14 C14       -11.6676   -1.3887   53.7579 C.2     1  ZINC000464139057    0.7000
     15 O15       -12.4220   -0.6320   54.3379 O.2     1  ZINC000464139057   -0.5900
     16 N16       -10.8051   -0.9082   52.8404 N.am    1  ZINC000464139057   -0.7500
     17 C17       -10.7780    0.5255   52.5407 C.3     1  ZINC000464139057    0.1400
     18 C18        -9.9662    1.2554   53.6126 C.3     1  ZINC000464139057   -0.0900
     19 C19        -8.5490    1.4362   53.1333 C.2     1  ZINC000464139057   -0.1200
     20 C20        -8.0096    0.5429   52.3660 C.2     1  ZINC000464139057   -0.1500
     21 C21        -6.5869    0.7121   51.8773 C.3     1  ZINC000464139057   -0.0900
     22 C22        -6.5586    1.8308   50.8336 C.3     1  ZINC000464139057   -0.1100
     23 C23        -6.4142    3.1866   51.5018 C.3     1  ZINC000464139057   -0.1200
     24 C24        -7.6172    3.5841   52.3386 C.3     1  ZINC000464139057   -0.1100
     25 C25        -7.7655    2.6639   53.5461 C.3     1  ZINC000464139057   -0.0800
     26 C26       -11.0459   -3.3709   56.9586 C.ar    1  ZINC000464139057   -0.1000
     27 C27       -10.6291   -2.9905   58.2174 C.ar    1  ZINC000464139057   -0.0700
     28 C28        -9.1489   -0.2971   59.2641 C.3     1  ZINC000464139057    0.0700
     29 C29        -9.0354    1.2260   59.3949 C.3     1  ZINC000464139057    0.0700
     30 H30       -10.0242    1.6743   59.2993 H       1  ZINC000464139057    0.0700
     31 C31        -8.1205    1.7666   58.2941 C.3     1  ZINC000464139057   -0.1500
     32 O32        -8.4860    1.5499   60.6755 O.3     1  ZINC000464139057   -0.3700
     33 H33       -11.1487    1.4446   60.7249 H       1  ZINC000464139057    0.0600
     34 H34       -11.3019    1.4503   62.4983 H       1  ZINC000464139057    0.0700
     35 H35       -10.5936    2.8527   61.6617 H       1  ZINC000464139057    0.0700
     36 H36        -8.4535   -0.8402   61.9876 H       1  ZINC000464139057    0.0800
     37 H37       -10.1489   -0.7024   62.5208 H       1  ZINC000464139057    0.1000
     38 H38       -13.0871   -0.7601   58.9265 H       1  ZINC000464139057    0.1300
     39 H39       -13.8063   -1.4455   56.6765 H       1  ZINC000464139057    0.1300
     40 H40       -12.6578   -4.3184   54.9681 H       1  ZINC000464139057    0.0800
     41 H41       -13.6279   -2.8323   54.8333 H       1  ZINC000464139057    0.0800
     42 H42       -11.0908   -3.3114   53.5705 H       1  ZINC000464139057    0.4000
     43 H43       -10.2023   -1.5118   52.3785 H       1  ZINC000464139057    0.4000
     44 H44       -10.3177    0.6842   51.5655 H       1  ZINC000464139057    0.0700
     45 H45       -11.7965    0.9136   52.5292 H       1  ZINC000464139057    0.0700
     46 H46       -10.4121    2.2314   53.8043 H       1  ZINC000464139057    0.0700
     47 H47        -9.9670    0.6688   54.5313 H       1  ZINC000464139057    0.0800
     48 H48        -8.5780   -0.3277   52.0734 H       1  ZINC000464139057    0.1100
     49 H49        -5.9415    0.9767   52.7149 H       1  ZINC000464139057    0.0700
     50 H50        -6.2419   -0.2182   51.4262 H       1  ZINC000464139057    0.0700
     51 H51        -5.7169    1.6714   50.1595 H       1  ZINC000464139057    0.0600
     52 H52        -7.4855    1.8102   50.2603 H       1  ZINC000464139057    0.0600
     53 H53        -5.5339    3.1665   52.1444 H       1  ZINC000464139057    0.0600
     54 H54        -6.2617    3.9411   50.7301 H       1  ZINC000464139057    0.0600
     55 H55        -7.4917    4.6108   52.6826 H       1  ZINC000464139057    0.0600
     56 H56        -8.5171    3.5190   51.7270 H       1  ZINC000464139057    0.0600
     57 H57        -8.2974    3.1863   54.3412 H       1  ZINC000464139057    0.0700
     58 H58        -6.7795    2.3618   53.8992 H       1  ZINC000464139057    0.0700
     59 H59       -10.4790   -4.1020   56.4013 H       1  ZINC000464139057    0.1300
     60 H60        -9.7389   -3.4256   58.6473 H       1  ZINC000464139057    0.1300
     61 H61        -8.1526   -0.7379   59.2287 H       1  ZINC000464139057    0.0800
     62 H62        -9.6944   -0.5479   58.3544 H       1  ZINC000464139057    0.1000
     63 H63        -8.5381    1.5162   57.3190 H       1  ZINC000464139057    0.0800
     64 H64        -8.0402    2.8496   58.3877 H       1  ZINC000464139057    0.0700
     65 H65        -7.1313    1.3192   58.3914 H       1  ZINC000464139057    0.0700
@<TRIPOS>BOND
     1     1     2    1
     2     1    33    1
     3     1    34    1
     4     1    35    1
     5     2     3    1
     6     2    32    1
     7     2     4    1
     8     4     5    1
     9     4    36    1
    10     4    37    1
    11     5     6   am
    12     5    28    1
    13     6     7    2
    14     6     8    1
    15     8    27   ar
    16     8     9   ar
    17     9    10   ar
    18     9    38    1
    19    10    11   ar
    20    10    39    1
    21    11    12    1
    22    11    26   ar
    23    12    13    1
    24    12    40    1
    25    12    41    1
    26    13    14   am
    27    13    42    1
    28    14    15    2
    29    14    16   am
    30    16    17    1
    31    16    43    1
    32    17    18    1
    33    17    44    1
    34    17    45    1
    35    18    19    1
    36    18    46    1
    37    18    47    1
    38    19    25    1
    39    19    20    2
    40    20    21    1
    41    20    48    1
    42    21    22    1
    43    21    49    1
    44    21    50    1
    45    22    23    1
    46    22    51    1
    47    22    52    1
    48    23    24    1
    49    23    53    1
    50    23    54    1
    51    24    25    1
    52    24    55    1
    53    24    56    1
    54    25    57    1
    55    25    58    1
    56    26    27   ar
    57    26    59    1
    58    27    60    1
    59    28    29    1
    60    28    61    1
    61    28    62    1
    62    29    30    1
    63    29    31    1
    64    29    32    1
    65    31    63    1
    66    31    64    1
    67    31    65    1
@<TRIPOS>SUBSTRUCTURE
     1 ZINC000464139057        1 TEMP              0 ****  ****    0 ROOT


##########                                Name:    ZINC000762187039
##########                DOCK_Rotatable_Bonds:                   9
##########                         Heavy_Atoms:                  25
##########                    Molecular_Weight:             354.473
##########                DOCK_Rotatable_Bonds:                   9
##########                       Formal_Charge:        -1.78814e-07
##########                     HBond_Acceptors:                   5
##########                        HBond_Donors:                   1
##########                         Heavy_Atoms:                  25
##########                          Grid_Score:          -32.187435
##########                     Grid_vdw_energy:          -28.793140
##########                      Grid_es_energy:           -3.394295
##########           Internal_energy_repulsive:            5.212179

@<TRIPOS>MOLECULE
ZINC000762187039
 47 49 1 0 0
SMALL
USER_CHARGES


@<TRIPOS>ATOM
      1 C1          1.4395   -3.0770   62.7348 C.3     1  ZINC000762187039   -0.0800
      2 C2          1.0814   -1.9078   61.8539 C.2     1  ZINC000762187039    0.0500
      3 N3          1.8215   -0.8668   61.6713 N.2     1  ZINC000762187039   -0.4700
      4 C4          1.3570    0.0668   60.8656 C.2     1  ZINC000762187039    0.0700
      5 C5          2.1155    1.3331   60.5622 C.3     1  ZINC000762187039   -0.0300
      6 C6          2.6426    1.2804   59.1269 C.3     1  ZINC000762187039   -0.1300
      7 C7          1.9206    2.3038   58.2887 C.2     1  ZINC000762187039    0.5200
      8 O8          2.4084    3.4010   58.1181 O.2     1  ZINC000762187039   -0.5400
      9 N9          0.7329    1.9998   57.7289 N.am    1  ZINC000762187039   -0.7300
     10 C10         0.0304    2.9952   56.9155 C.3     1  ZINC000762187039    0.1200
     11 C11        -1.2546    2.3815   56.3557 C.3     1  ZINC000762187039   -0.1300
     12 C12        -2.2872    3.4859   56.1213 C.3     1  ZINC000762187039    0.0600
     13 O13        -1.7862    4.4086   55.1519 O.3     1  ZINC000762187039   -0.3100
     14 C14        -1.7768    3.9979   53.8567 C.ar    1  ZINC000762187039    0.1300
     15 C15        -0.5563    3.7748   53.2124 C.ar    1  ZINC000762187039   -0.1900
     16 C16        -0.5144    3.3634   51.9166 C.ar    1  ZINC000762187039   -0.0600
     17 C17        -1.7129    3.1580   51.2115 C.ar    1  ZINC000762187039   -0.0800
     18 C18        -1.7064    2.7328   49.8721 C.ar    1  ZINC000762187039   -0.0900
     19 C19        -2.8857    2.5434   49.2197 C.ar    1  ZINC000762187039   -0.1300
     20 C20        -4.1038    2.7647   49.8598 C.ar    1  ZINC000762187039   -0.1000
     21 C21        -4.1495    3.1768   51.1559 C.ar    1  ZINC000762187039   -0.1200
     22 C22        -2.9518    3.3831   51.8628 C.ar    1  ZINC000762187039   -0.0100
     23 C23        -2.9602    3.8030   53.2027 C.ar    1  ZINC000762187039   -0.1500
     24 C24         0.1582   -0.2016   60.3393 C.2     1  ZINC000762187039   -0.2600
     25 S25        -0.3612   -1.7720   60.9464 S.3     1  ZINC000762187039    0.1200
     26 H26         0.6387   -3.8158   62.7014 H       1  ZINC000762187039    0.0800
     27 H27         2.3657   -3.5291   62.3798 H       1  ZINC000762187039    0.0900
     28 H28         1.5732   -2.7320   63.7601 H       1  ZINC000762187039    0.0900
     29 H29         1.4516    2.1902   60.6743 H       1  ZINC000762187039    0.0900
     30 H30         2.9530    1.4294   61.2534 H       1  ZINC000762187039    0.0900
     31 H31         3.7109    1.4965   59.1239 H       1  ZINC000762187039    0.0900
     32 H32         2.4718    0.2864   58.7134 H       1  ZINC000762187039    0.1000
     33 H33         0.3434    1.1219   57.8644 H       1  ZINC000762187039    0.4000
     34 H34        -0.2183    3.8586   57.5326 H       1  ZINC000762187039    0.0700
     35 H35         0.6715    3.3097   56.0920 H       1  ZINC000762187039    0.0700
     36 H36        -1.0370    1.8813   55.4120 H       1  ZINC000762187039    0.0800
     37 H37        -1.6517    1.6579   57.0675 H       1  ZINC000762187039    0.0800
     38 H38        -3.2149    3.0445   55.7573 H       1  ZINC000762187039    0.0700
     39 H39        -2.4772    4.0103   57.0578 H       1  ZINC000762187039    0.0700
     40 H40         0.3666    3.9317   53.7511 H       1  ZINC000762187039    0.1300
     41 H41         0.4357    3.1957   51.4313 H       1  ZINC000762187039    0.1300
     42 H42        -0.7703    2.5575   49.3628 H       1  ZINC000762187039    0.1300
     43 H43        -2.8775    2.2169   48.1902 H       1  ZINC000762187039    0.1200
     44 H44        -5.0253    2.6072   49.3190 H       1  ZINC000762187039    0.1200
     45 H45        -5.1007    3.3444   51.6391 H       1  ZINC000762187039    0.1300
     46 H46        -3.8969    3.9743   53.7123 H       1  ZINC000762187039    0.1300
     47 H47        -0.3930    0.4307   59.6591 H       1  ZINC000762187039    0.1800
@<TRIPOS>BOND
     1     1     2    1
     2     1    26    1
     3     1    27    1
     4     1    28    1
     5     2    25    1
     6     2     3    2
     7     3     4    1
     8     4     5    1
     9     4    24    2
    10     5     6    1
    11     5    29    1
    12     5    30    1
    13     6     7    1
    14     6    31    1
    15     6    32    1
    16     7     8    2
    17     7     9   am
    18     9    10    1
    19     9    33    1
    20    10    11    1
    21    10    34    1
    22    10    35    1
    23    11    12    1
    24    11    36    1
    25    11    37    1
    26    12    13    1
    27    12    38    1
    28    12    39    1
    29    13    14    1
    30    14    23   ar
    31    14    15   ar
    32    15    16   ar
    33    15    40    1
    34    16    17   ar
    35    16    41    1
    36    17    22   ar
    37    17    18   ar
    38    18    19   ar
    39    18    42    1
    40    19    20   ar
    41    19    43    1
    42    20    21   ar
    43    20    44    1
    44    21    22   ar
    45    21    45    1
    46    22    23   ar
    47    23    46    1
    48    24    25    1
    49    24    47    1
@<TRIPOS>SUBSTRUCTURE
     1 ZINC000762187039        1 TEMP              0 ****  ****    0 ROOT


##########                                Name:    ZINC000766421809
##########                DOCK_Rotatable_Bonds:                   7
##########                         Heavy_Atoms:                  26
##########                    Molecular_Weight:             358.372
##########                DOCK_Rotatable_Bonds:                   7
##########                       Formal_Charge:         4.61936e-07
##########                     HBond_Acceptors:                   8
##########                        HBond_Donors:                   0
##########                         Heavy_Atoms:                  26
##########                          Grid_Score:          -32.185013
##########                     Grid_vdw_energy:          -32.158802
##########                      Grid_es_energy:           -0.026211
##########           Internal_energy_repulsive:            4.145931

@<TRIPOS>MOLECULE
ZINC000766421809
 45 47 1 0 0
SMALL
USER_CHARGES


@<TRIPOS>ATOM
      1 C1          3.9661   -1.5367   50.1279 C.3     1  ZINC000766421809   -0.0700
      2 C2          3.6211   -0.8166   48.8497 C.2     1  ZINC000766421809    0.0700
      3 N3          4.2506   -0.9345   47.7089 N.2     1  ZINC000766421809   -0.2900
      4 N4          3.6214   -0.1026   46.7739 N.pl3   1  ZINC000766421809   -0.3700
      5 C5          4.0093    0.0654   45.3711 C.3     1  ZINC000766421809    0.1000
      6 C6          2.5949    0.5168   47.3933 C.2     1  ZINC000766421809    0.0700
      7 C7          1.6439    1.5036   46.7666 C.3     1  ZINC000766421809    0.1400
      8 O8          0.3655    1.4464   47.4525 O.3     1  ZINC000766421809   -0.3400
      9 C9         -0.5414    2.3820   47.1301 C.2     1  ZINC000766421809    0.4700
     10 O10        -0.3155    3.1583   46.2322 O.2     1  ZINC000766421809   -0.5000
     11 C11        -1.8413    2.4641   47.8881 C.3     1  ZINC000766421809   -0.1100
     12 C12        -1.6747    3.4007   49.0864 C.3     1  ZINC000766421809   -0.0200
     13 C13        -2.9718    3.4754   49.8499 C.2     1  ZINC000766421809    0.1900
     14 N14        -3.8029    2.4873   50.0698 N.2     1  ZINC000766421809   -0.4700
     15 C15        -4.8169    3.0189   50.7895 C.2     1  ZINC000766421809    0.2200
     16 C16        -6.0142    2.2992   51.2897 C.ar    1  ZINC000766421809   -0.0300
     17 C17        -7.1468    3.0123   51.6772 C.ar    1  ZINC000766421809   -0.0500
     18 C18        -8.2582    2.3391   52.1413 C.ar    1  ZINC000766421809   -0.1500
     19 C19        -8.2488    0.9561   52.2227 C.ar    1  ZINC000766421809    0.1200
     20 F20        -9.3390    0.3008   52.6781 F       1  ZINC000766421809   -0.1300
     21 C21        -7.1246    0.2429   51.8378 C.ar    1  ZINC000766421809   -0.1200
     22 C22        -7.1207   -1.2614   51.9277 C.3     1  ZINC000766421809   -0.1200
     23 C23        -6.0111    0.9077   51.3678 C.ar    1  ZINC000766421809   -0.0600
     24 N24        -4.5443    4.2863   50.9625 N.2     1  ZINC000766421809   -0.3700
     25 O25        -3.4874    4.5611   50.4347 O.3     1  ZINC000766421809    0.0900
     26 C26         2.5690    0.0887   48.6768 C.2     1  ZINC000766421809   -0.2400
     27 H27         3.4279   -2.4837   50.1681 H       1  ZINC000766421809    0.0800
     28 H28         5.0389   -1.7269   50.1596 H       1  ZINC000766421809    0.0700
     29 H29         3.6810   -0.9203   50.9805 H       1  ZINC000766421809    0.0800
     30 H30         3.4805   -0.6642   44.7580 H       1  ZINC000766421809    0.0800
     31 H31         3.7520    1.0720   45.0411 H       1  ZINC000766421809    0.0900
     32 H32         5.0840   -0.0862   45.2706 H       1  ZINC000766421809    0.0900
     33 H33         2.0565    2.5090   46.8502 H       1  ZINC000766421809    0.0900
     34 H34         1.5034    1.2549   45.7147 H       1  ZINC000766421809    0.0900
     35 H35        -2.6212    2.8496   47.2314 H       1  ZINC000766421809    0.1200
     36 H36        -2.1203    1.4707   48.2395 H       1  ZINC000766421809    0.1200
     37 H37        -0.8901    3.0188   49.7396 H       1  ZINC000766421809    0.1200
     38 H38        -1.4022    4.3957   48.7347 H       1  ZINC000766421809    0.1200
     39 H39        -7.1547    4.0906   51.6147 H       1  ZINC000766421809    0.1500
     40 H40        -9.1365    2.8911   52.4419 H       1  ZINC000766421809    0.1500
     41 H41        -7.4848   -1.6823   50.9905 H       1  ZINC000766421809    0.0800
     42 H42        -6.1053   -1.6117   52.1130 H       1  ZINC000766421809    0.0800
     43 H43        -7.7691   -1.5783   52.7446 H       1  ZINC000766421809    0.0700
     44 H44        -5.1355    0.3511   51.0681 H       1  ZINC000766421809    0.1400
     45 H45         1.8644    0.3965   49.4352 H       1  ZINC000766421809    0.1500
@<TRIPOS>BOND
     1     1     2    1
     2     1    27    1
     3     1    28    1
     4     1    29    1
     5     2    26    1
     6     2     3    2
     7     3     4    1
     8     4     5    1
     9     4     6    1
    10     5    30    1
    11     5    31    1
    12     5    32    1
    13     6     7    1
    14     6    26    2
    15     7     8    1
    16     7    33    1
    17     7    34    1
    18     8     9    1
    19     9    10    2
    20     9    11    1
    21    11    12    1
    22    11    35    1
    23    11    36    1
    24    12    13    1
    25    12    37    1
    26    12    38    1
    27    13    25    1
    28    13    14    2
    29    14    15    1
    30    15    16    1
    31    15    24    2
    32    16    23   ar
    33    16    17   ar
    34    17    18   ar
    35    17    39    1
    36    18    19   ar
    37    18    40    1
    38    19    20    1
    39    19    21   ar
    40    21    22    1
    41    21    23   ar
    42    22    41    1
    43    22    42    1
    44    22    43    1
    45    23    44    1
    46    24    25    1
    47    26    45    1
@<TRIPOS>SUBSTRUCTURE
     1 ZINC000766421809        1 TEMP              0 ****  ****    0 ROOT


##########                                Name:    ZINC001347442583
##########                DOCK_Rotatable_Bonds:                   9
##########                         Heavy_Atoms:                  27
##########                    Molecular_Weight:             370.492
##########                DOCK_Rotatable_Bonds:                   9
##########                       Formal_Charge:          -0.0400009
##########                     HBond_Acceptors:                   5
##########                        HBond_Donors:                   1
##########                         Heavy_Atoms:                  27
##########                          Grid_Score:          -32.184761
##########                     Grid_vdw_energy:          -31.364378
##########                      Grid_es_energy:           -0.820385
##########           Internal_energy_repulsive:           11.309332

@<TRIPOS>MOLECULE
ZINC001347442583
 57 60 1 0 0
SMALL
USER_CHARGES


@<TRIPOS>ATOM
      1 O1         -2.3616    1.8156   48.5019 O.2     1  ZINC001347442583   -0.5400
      2 C2         -2.2207    2.7470   49.2658 C.2     1  ZINC001347442583    0.5400
      3 C3         -3.2255    2.9787   50.3648 C.3     1  ZINC001347442583   -0.1400
      4 C4         -4.5653    2.3533   49.9711 C.3     1  ZINC001347442583   -0.1000
      5 C5         -5.6766    2.9351   50.8470 C.3     1  ZINC001347442583   -0.1100
      6 C6         -5.6491    2.2610   52.2204 C.3     1  ZINC001347442583   -0.0800
      7 C7         -6.7485    1.2332   52.2976 C.ar    1  ZINC001347442583   -0.0800
      8 C8         -7.9062    1.5109   53.0001 C.ar    1  ZINC001347442583   -0.1200
      9 C9         -8.9146    0.5681   53.0708 C.ar    1  ZINC001347442583   -0.1200
     10 C10        -8.7656   -0.6522   52.4388 C.ar    1  ZINC001347442583   -0.1300
     11 C11        -7.6084   -0.9295   51.7355 C.ar    1  ZINC001347442583   -0.1200
     12 C12        -6.6016    0.0150   51.6611 C.ar    1  ZINC001347442583   -0.1200
     13 N13        -1.1626    3.5715   49.1354 N.am    1  ZINC001347442583   -0.6300
     14 C14        -0.7514    4.7760   49.9337 C.3     1  ZINC001347442583    0.1200
     15 H15        -1.4103    5.0473   50.7584 H       1  ZINC001347442583    0.1200
     16 C16        -0.6072    5.8449   48.8087 C.3     1  ZINC001347442583   -0.1300
     17 C17        -0.1165    5.0227   47.5916 C.3     1  ZINC001347442583   -0.1300
     18 C18        -0.0277    3.5652   48.1510 C.3     1  ZINC001347442583    0.1200
     19 H19        -0.0518    2.7722   47.4036 H       1  ZINC001347442583    0.1200
     20 C20         1.2164    3.5668   49.0897 C.3     1  ZINC001347442583    0.1300
     21 H21         2.0638    4.0500   48.6034 H       1  ZINC001347442583    0.1100
     22 N22         1.5631    2.2006   49.4894 N.am    1  ZINC001347442583   -0.7200
     23 C23         2.8508    1.8030   49.4833 C.2     1  ZINC001347442583    0.5300
     24 O24         3.7225    2.5757   49.1455 O.2     1  ZINC001347442583   -0.5300
     25 C25         3.2076    0.3982   49.8963 C.3     1  ZINC001347442583   -0.1500
     26 H26         3.6729    0.3919   50.8819 H       1  ZINC001347442583    0.1100
     27 C27         1.9556   -0.5202   49.8704 C.3     1  ZINC001347442583   -0.1400
     28 C28         2.6076   -1.8986   49.5951 C.3     1  ZINC001347442583    0.0500
     29 O29         3.6964   -1.6261   48.6987 O.3     1  ZINC001347442583   -0.3800
     30 C30         4.1284   -0.2651   48.8497 C.3     1  ZINC001347442583    0.0700
     31 C31         0.7030    4.3860   50.3353 C.3     1  ZINC001347442583   -0.1400
     32 H32        -2.8677    2.5205   51.2869 H       1  ZINC001347442583    0.0900
     33 H33        -3.3558    4.0499   50.5182 H       1  ZINC001347442583    0.0900
     34 H34        -4.7751    2.5729   48.9242 H       1  ZINC001347442583    0.0700
     35 H35        -4.5180    1.2737   50.1133 H       1  ZINC001347442583    0.0700
     36 H36        -5.5222    4.0075   50.9655 H       1  ZINC001347442583    0.0600
     37 H37        -6.6426    2.7570   50.3744 H       1  ZINC001347442583    0.0600
     38 H38        -4.6851    1.7737   52.3666 H       1  ZINC001347442583    0.0700
     39 H39        -5.7984    3.0116   52.9965 H       1  ZINC001347442583    0.0700
     40 H40        -8.0227    2.4642   53.4939 H       1  ZINC001347442583    0.1200
     41 H41        -9.8188    0.7848   53.6204 H       1  ZINC001347442583    0.1200
     42 H42        -9.5532   -1.3891   52.4947 H       1  ZINC001347442583    0.1200
     43 H43        -7.4917   -1.8831   51.2418 H       1  ZINC001347442583    0.1200
     44 H44        -5.6974   -0.2017   51.1116 H       1  ZINC001347442583    0.1200
     45 H45        -1.5696    6.3099   48.5951 H       1  ZINC001347442583    0.0700
     46 H46         0.1308    6.5974   49.0864 H       1  ZINC001347442583    0.0800
     47 H47        -0.8356    5.0800   46.7744 H       1  ZINC001347442583    0.0800
     48 H48         0.8648    5.3675   47.2658 H       1  ZINC001347442583    0.0800
     49 H49         0.8658    1.5824   49.7585 H       1  ZINC001347442583    0.4000
     50 H50         1.4432   -0.5132   50.8325 H       1  ZINC001347442583    0.0900
     51 H51         1.2780   -0.2382   49.0645 H       1  ZINC001347442583    0.0900
     52 H52         2.9808   -2.3326   50.5228 H       1  ZINC001347442583    0.0700
     53 H53         1.8891   -2.5699   49.1247 H       1  ZINC001347442583    0.0900
     54 H54         4.0395    0.2587   47.8980 H       1  ZINC001347442583    0.0700
     55 H55         5.1632   -0.2413   49.1911 H       1  ZINC001347442583    0.0800
     56 H56         1.2976    5.2892   50.4724 H       1  ZINC001347442583    0.0900
     57 H57         0.7243    3.7707   51.2348 H       1  ZINC001347442583    0.0800
@<TRIPOS>BOND
     1     1     2    2
     2     2     3    1
     3     2    13   am
     4     3     4    1
     5     3    32    1
     6     3    33    1
     7     4     5    1
     8     4    34    1
     9     4    35    1
    10     5     6    1
    11     5    36    1
    12     5    37    1
    13     6     7    1
    14     6    38    1
    15     6    39    1
    16     7    12   ar
    17     7     8   ar
    18     8     9   ar
    19     8    40    1
    20     9    10   ar
    21     9    41    1
    22    10    11   ar
    23    10    42    1
    24    11    12   ar
    25    11    43    1
    26    12    44    1
    27    13    18    1
    28    13    14    1
    29    14    15    1
    30    14    31    1
    31    14    16    1
    32    16    17    1
    33    16    45    1
    34    16    46    1
    35    17    18    1
    36    17    47    1
    37    17    48    1
    38    18    19    1
    39    18    20    1
    40    20    21    1
    41    20    22    1
    42    20    31    1
    43    22    23   am
    44    22    49    1
    45    23    24    2
    46    23    25    1
    47    25    26    1
    48    25    30    1
    49    25    27    1
    50    27    28    1
    51    27    50    1
    52    27    51    1
    53    28    29    1
    54    28    52    1
    55    28    53    1
    56    29    30    1
    57    30    54    1
    58    30    55    1
    59    31    56    1
    60    31    57    1
@<TRIPOS>SUBSTRUCTURE
     1 ZINC001347442583        1 TEMP              0 ****  ****    0 ROOT


##########                                Name:    ZINC000774689801
##########                DOCK_Rotatable_Bonds:                   4
##########                         Heavy_Atoms:                  24
##########                    Molecular_Weight:             347.395
##########                DOCK_Rotatable_Bonds:                   4
##########                       Formal_Charge:         -0.00999961
##########                     HBond_Acceptors:                   8
##########                        HBond_Donors:                   1
##########                         Heavy_Atoms:                  24
##########                          Grid_Score:          -32.178001
##########                     Grid_vdw_energy:          -31.911922
##########                      Grid_es_energy:           -0.266078
##########           Internal_energy_repulsive:            4.754045

@<TRIPOS>MOLECULE
ZINC000774689801
 41 44 1 0 0
SMALL
USER_CHARGES


@<TRIPOS>ATOM
      1 C1          0.9610    3.7116   48.9924 C.3     1  ZINC000774689801   -0.1200
      2 C2         -0.1890    2.9360   48.4030 C.2     1  ZINC000774689801    0.0600
      3 C3         -0.0914    2.2910   47.2294 C.2     1  ZINC000774689801   -0.2800
      4 C4          1.1100    2.2571   46.3929 C.2     1  ZINC000774689801    0.5500
      5 O5          1.1891    2.9733   45.4130 O.2     1  ZINC000774689801   -0.4900
      6 O6          2.1291    1.4317   46.7090 O.3     1  ZINC000774689801   -0.3400
      7 C7          1.8131    0.2815   47.5370 C.3     1  ZINC000774689801    0.0900
      8 C8          3.1080   -0.4228   47.9470 C.3     1  ZINC000774689801   -0.1300
      9 H9          3.6288   -0.8036   47.0684 H       1  ZINC000774689801    0.1200
     10 C10         4.0201    0.5406   48.7413 C.3     1  ZINC000774689801   -0.1300
     11 C11         4.6484   -0.4092   49.7851 C.3     1  ZINC000774689801    0.1000
     12 N12         3.6893   -1.5092   49.9411 N.am    1  ZINC000774689801   -0.7400
     13 C13         2.8155   -1.5461   48.9172 C.2     1  ZINC000774689801    0.5200
     14 O14         1.9234   -2.3584   48.7943 O.2     1  ZINC000774689801   -0.5100
     15 S15        -1.6055    1.4934   46.8386 S.3     1  ZINC000774689801    0.3000
     16 C16        -2.3510    2.0752   48.3225 C.2     1  ZINC000774689801    0.1000
     17 C17        -1.4232    2.8354   49.0422 C.2     1  ZINC000774689801   -0.2500
     18 C18        -1.8795    3.4068   50.3235 C.2     1  ZINC000774689801    0.5700
     19 O19        -1.1291    4.0811   51.0060 O.2     1  ZINC000774689801   -0.5000
     20 N20        -3.1499    3.1662   50.7245 N.am    1  ZINC000774689801   -0.5500
     21 C21        -3.8309    3.6159   51.9509 C.3     1  ZINC000774689801    0.0900
     22 C22        -5.3386    3.4382   51.6771 C.3     1  ZINC000774689801   -0.1300
     23 C23        -5.3376    2.3063   50.6271 C.3     1  ZINC000774689801   -0.0800
     24 C24        -3.9792    2.4167   49.9549 C.2     1  ZINC000774689801    0.4200
     25 N25        -3.5871    1.9000   48.8207 N.2     1  ZINC000774689801   -0.5100
     26 H26         1.5593    3.0525   49.6213 H       1  ZINC000774689801    0.0800
     27 H27         1.5812    4.1087   48.1888 H       1  ZINC000774689801    0.1000
     28 H28         0.5741    4.5346   49.5933 H       1  ZINC000774689801    0.0800
     29 H29         1.2807    0.6113   48.4291 H       1  ZINC000774689801    0.0900
     30 H30         1.1859   -0.4099   46.9743 H       1  ZINC000774689801    0.0800
     31 H31         4.7854    0.9733   48.0971 H       1  ZINC000774689801    0.1000
     32 H32         3.4341    1.3209   49.2270 H       1  ZINC000774689801    0.0900
     33 H33         5.6032   -0.7899   49.4222 H       1  ZINC000774689801    0.0800
     34 H34         4.7845    0.1098   50.7338 H       1  ZINC000774689801    0.0800
     35 H35         3.6862   -2.1311   50.6854 H       1  ZINC000774689801    0.4100
     36 H36        -3.5267    3.0009   52.7979 H       1  ZINC000774689801    0.1000
     37 H37        -3.6043    4.6642   52.1449 H       1  ZINC000774689801    0.1000
     38 H38        -5.8654    3.1314   52.5807 H       1  ZINC000774689801    0.1100
     39 H39        -5.7705    4.3508   51.2663 H       1  ZINC000774689801    0.0900
     40 H40        -5.4446    1.3362   51.1126 H       1  ZINC000774689801    0.1200
     41 H41        -6.1356    2.4598   49.9007 H       1  ZINC000774689801    0.1200
@<TRIPOS>BOND
     1     1     2    1
     2     1    26    1
     3     1    27    1
     4     1    28    1
     5     2    17    1
     6     2     3    2
     7     3     4    1
     8     3    15    1
     9     4     5    2
    10     4     6    1
    11     6     7    1
    12     7     8    1
    13     7    29    1
    14     7    30    1
    15     8     9    1
    16     8    13    1
    17     8    10    1
    18    10    11    1
    19    10    31    1
    20    10    32    1
    21    11    12    1
    22    11    33    1
    23    11    34    1
    24    12    13   am
    25    12    35    1
    26    13    14    2
    27    15    16    1
    28    16    25    1
    29    16    17    2
    30    17    18    1
    31    18    19    2
    32    18    20   am
    33    20    24    1
    34    20    21    1
    35    21    22    1
    36    21    36    1
    37    21    37    1
    38    22    23    1
    39    22    38    1
    40    22    39    1
    41    23    24    1
    42    23    40    1
    43    23    41    1
    44    24    25    2
@<TRIPOS>SUBSTRUCTURE
     1 ZINC000774689801        1 TEMP              0 ****  ****    0 ROOT


##########                                Name:    ZINC000751548479
##########                DOCK_Rotatable_Bonds:                   9
##########                         Heavy_Atoms:                  27
##########                    Molecular_Weight:             389.407
##########                DOCK_Rotatable_Bonds:                   9
##########                       Formal_Charge:           0.0199995
##########                     HBond_Acceptors:                   9
##########                        HBond_Donors:                   2
##########                         Heavy_Atoms:                  27
##########                          Grid_Score:          -32.175400
##########                     Grid_vdw_energy:          -30.975475
##########                      Grid_es_energy:           -1.199925
##########           Internal_energy_repulsive:           10.342096

@<TRIPOS>MOLECULE
ZINC000751548479
 43 44 1 0 0
SMALL
USER_CHARGES


@<TRIPOS>ATOM
      1 C1         -2.5561    2.7761   49.4167 C.3     1  ZINC000751548479   -0.1600
      2 C2         -4.0308    2.9180   49.7989 C.3     1  ZINC000751548479    0.0800
      3 O3         -4.3633    1.9379   50.8173 O.3     1  ZINC000751548479   -0.3600
      4 C4         -5.6706    1.6888   51.0223 C.2     1  ZINC000751548479    0.6500
      5 O5         -6.4270    1.5959   50.0759 O.2     1  ZINC000751548479   -0.5400
      6 N6         -6.1399    1.5425   52.2771 N.am    1  ZINC000751548479   -0.6500
      7 C7         -7.4957    1.2840   52.4898 C.ar    1  ZINC000751548479    0.2000
      8 C8         -8.3468    2.3092   52.8763 C.ar    1  ZINC000751548479   -0.1000
      9 C9         -9.6873    2.0554   53.0870 C.ar    1  ZINC000751548479   -0.1000
     10 C10       -10.1950    0.7723   52.9139 C.ar    1  ZINC000751548479    0.1300
     11 N11       -11.5552    0.5249   53.1303 N.am    1  ZINC000751548479   -1.0500
     12 S12       -12.5912    0.4114   51.8433 S.o2    1  ZINC000751548479    2.6800
     13 O13       -12.0382   -0.5616   50.9677 O.2     1  ZINC000751548479   -0.9500
     14 O14       -13.8994    0.3120   52.3888 O.2     1  ZINC000751548479   -0.9400
     15 C15       -12.5258    1.9484   50.9841 C.2     1  ZINC000751548479   -0.7500
     16 C16       -13.1521    2.0862   49.8237 C.2     1  ZINC000751548479    0.0700
     17 C17       -13.9035    0.9502   49.2500 C.ar    1  ZINC000751548479   -0.1100
     18 C18       -15.2203    0.7106   49.6453 C.ar    1  ZINC000751548479   -0.0600
     19 C19       -15.9172   -0.3507   49.1064 C.ar    1  ZINC000751548479   -0.1600
     20 C20       -15.3120   -1.1787   48.1745 C.ar    1  ZINC000751548479    0.1200
     21 F21       -15.9989   -2.2171   47.6501 F       1  ZINC000751548479   -0.1300
     22 C22       -14.0049   -0.9449   47.7782 C.ar    1  ZINC000751548479   -0.1600
     23 C23       -13.3007    0.1167   48.3069 C.ar    1  ZINC000751548479   -0.0500
     24 C24        -9.3580   -0.2611   52.5275 C.ar    1  ZINC000751548479   -0.0600
     25 C25        -8.0018   -0.0115   52.3077 C.ar    1  ZINC000751548479   -0.0300
     26 C26        -7.1301   -1.0748   51.9076 C.1     1  ZINC000751548479    0.2500
     27 N27        -6.4386   -1.9184   51.5901 N.1     1  ZINC000751548479   -0.4000
     28 H28        -2.3762    1.7735   49.0287 H       1  ZINC000751548479    0.0700
     29 H29        -2.3066    3.5118   48.6521 H       1  ZINC000751548479    0.0900
     30 H30        -1.9350    2.9420   50.2969 H       1  ZINC000751548479    0.0700
     31 H31        -4.2107    3.9206   50.1868 H       1  ZINC000751548479    0.0800
     32 H32        -4.6519    2.7522   48.9186 H       1  ZINC000751548479    0.0800
     33 H33        -5.5361    1.6166   53.0326 H       1  ZINC000751548479    0.4200
     34 H34        -7.9596    3.3081   53.0130 H       1  ZINC000751548479    0.1600
     35 H35       -10.3451    2.8574   53.3881 H       1  ZINC000751548479    0.1700
     36 H36       -11.8914    0.4201   54.0341 H       1  ZINC000751548479    0.4300
     37 H37       -11.9756    2.7780   51.4026 H       1  ZINC000751548479    0.1700
     38 H38       -13.1132    3.0287   49.2976 H       1  ZINC000751548479    0.1500
     39 H39       -15.6926    1.3549   50.3720 H       1  ZINC000751548479    0.1400
     40 H40       -16.9363   -0.5370   49.4117 H       1  ZINC000751548479    0.1400
     41 H41       -13.5379   -1.5930   47.0514 H       1  ZINC000751548479    0.1400
     42 H42       -12.2822    0.2982   47.9972 H       1  ZINC000751548479    0.1400
     43 H43        -9.7538   -1.2570   52.3936 H       1  ZINC000751548479    0.1500
@<TRIPOS>BOND
     1     1     2    1
     2     1    28    1
     3     1    29    1
     4     1    30    1
     5     2     3    1
     6     2    31    1
     7     2    32    1
     8     3     4    1
     9     4     5    2
    10     4     6   am
    11     6     7    1
    12     6    33    1
    13     7    25   ar
    14     7     8   ar
    15     8     9   ar
    16     8    34    1
    17     9    10   ar
    18     9    35    1
    19    10    11    1
    20    10    24   ar
    21    11    12   am
    22    11    36    1
    23    12    13    2
    24    12    14    2
    25    12    15    1
    26    15    16    2
    27    15    37    1
    28    16    17    1
    29    16    38    1
    30    17    23   ar
    31    17    18   ar
    32    18    19   ar
    33    18    39    1
    34    19    20   ar
    35    19    40    1
    36    20    21    1
    37    20    22   ar
    38    22    23   ar
    39    22    41    1
    40    23    42    1
    41    24    25   ar
    42    24    43    1
    43    25    26    1
    44    26    27    3
@<TRIPOS>SUBSTRUCTURE
     1 ZINC000751548479        1 TEMP              0 ****  ****    0 ROOT


##########                                Name:    ZINC000465642058
##########                DOCK_Rotatable_Bonds:                  10
##########                         Heavy_Atoms:                  31
##########                    Molecular_Weight:             420.511
##########                DOCK_Rotatable_Bonds:                  10
##########                       Formal_Charge:          1.2666e-07
##########                     HBond_Acceptors:                   7
##########                        HBond_Donors:                   2
##########                         Heavy_Atoms:                  31
##########                          Grid_Score:          -32.173653
##########                     Grid_vdw_energy:          -32.144775
##########                      Grid_es_energy:           -0.028875
##########           Internal_energy_repulsive:           12.577581

@<TRIPOS>MOLECULE
ZINC000465642058
 59 62 1 0 0
SMALL
USER_CHARGES


@<TRIPOS>ATOM
      1 C1         -5.8219    1.1861   50.9226 C.3     1  ZINC000465642058   -0.1500
      2 C2         -5.1325    2.3051   50.1393 C.3     1  ZINC000465642058    0.0500
      3 O3         -3.7987    2.4736   50.6235 O.3     1  ZINC000465642058   -0.3000
      4 C4         -2.8975    3.0285   49.7697 C.ar    1  ZINC000465642058    0.1200
      5 C5         -2.3939    2.2884   48.7092 C.ar    1  ZINC000465642058   -0.1600
      6 C6         -1.4823    2.8558   47.8466 C.ar    1  ZINC000465642058   -0.1300
      7 C7         -1.0608    4.1676   48.0183 C.ar    1  ZINC000465642058    0.0700
      8 C8         -1.5661    4.9040   49.0870 C.ar    1  ZINC000465642058   -0.0700
      9 C9         -2.4811    4.3393   49.9506 C.ar    1  ZINC000465642058   -0.1100
     10 C10        -3.0215    5.1457   51.1033 C.3     1  ZINC000465642058    0.1900
     11 N11        -2.6047    4.5321   52.3665 N.am    1  ZINC000465642058   -0.7300
     12 C12        -3.1004    4.9890   53.5335 C.2     1  ZINC000465642058    0.7100
     13 O13        -3.8926    5.9114   53.5379 O.2     1  ZINC000465642058   -0.5900
     14 N14        -2.7181    4.4234   54.6956 N.am    1  ZINC000465642058   -0.6200
     15 C15        -3.2557    4.9213   55.9642 C.3     1  ZINC000465642058    0.1900
     16 C16        -4.6155    4.3179   56.2049 C.2     1  ZINC000465642058    0.0500
     17 N17        -5.6858    4.5252   55.4814 N.2     1  ZINC000465642058   -0.2700
     18 N18        -6.7380    3.7837   56.0340 N.pl3   1  ZINC000465642058   -0.4700
     19 C19        -6.2615    3.1263   57.1119 C.2     1  ZINC000465642058    0.0600
     20 C20        -4.9499    3.4347   57.2367 C.2     1  ZINC000465642058   -0.2600
     21 C21        -1.7650    3.3108   54.6902 C.3     1  ZINC000465642058    0.1700
     22 C22        -0.3592    3.8537   54.6933 C.ar    1  ZINC000465642058   -0.1100
     23 C23         0.2766    4.1189   55.8918 C.ar    1  ZINC000465642058   -0.0900
     24 C24         1.5661    4.6170   55.8946 C.ar    1  ZINC000465642058   -0.1200
     25 C25         2.2199    4.8495   54.6991 C.ar    1  ZINC000465642058   -0.1200
     26 C26         1.5844    4.5835   53.5007 C.ar    1  ZINC000465642058   -0.1300
     27 C27         0.2965    4.0814   53.4979 C.ar    1  ZINC000465642058   -0.1100
     28 O28        -0.1796    4.5335   47.0458 O.3     1  ZINC000465642058   -0.3000
     29 C29         0.3693    3.3528   46.4362 C.3     1  ZINC000465642058    0.0800
     30 H30         1.2772    3.0388   46.9512 H       1  ZINC000465642058    0.0900
     31 C31         0.6455    3.5885   44.9499 C.3     1  ZINC000465642058   -0.1500
     32 C32        -0.7585    2.3118   46.6300 C.3     1  ZINC000465642058   -0.1100
     33 H33        -5.8497    1.4470   51.9806 H       1  ZINC000465642058    0.0700
     34 H34        -6.8393    1.0576   50.5532 H       1  ZINC000465642058    0.0800
     35 H35        -5.2678    0.2566   50.7920 H       1  ZINC000465642058    0.0700
     36 H36        -5.1047    2.0442   49.0813 H       1  ZINC000465642058    0.0600
     37 H37        -5.6866    3.2347   50.2699 H       1  ZINC000465642058    0.0600
     38 H38        -2.7162    1.2683   48.5607 H       1  ZINC000465642058    0.1300
     39 H39        -1.2430    5.9235   49.2377 H       1  ZINC000465642058    0.1400
     40 H40        -2.6341    6.1630   51.0481 H       1  ZINC000465642058    0.0700
     41 H41        -4.1101    5.1682   51.0520 H       1  ZINC000465642058    0.0800
     42 H42        -1.9718    3.7970   52.3630 H       1  ZINC000465642058    0.4000
     43 H43        -2.5854    4.6423   56.7772 H       1  ZINC000465642058    0.1000
     44 H44        -3.3424    6.0070   55.9210 H       1  ZINC000465642058    0.0900
     45 H45        -7.6483    3.7491   55.7008 H       1  ZINC000465642058    0.4400
     46 H46        -6.8251    2.4683   57.7569 H       1  ZINC000465642058    0.1800
     47 H47        -4.2811    3.0687   58.0016 H       1  ZINC000465642058    0.1500
     48 H48        -1.9191    2.6961   55.5770 H       1  ZINC000465642058    0.0900
     49 H49        -1.9186    2.7052   53.7971 H       1  ZINC000465642058    0.0900
     50 H50        -0.2342    3.9373   56.8258 H       1  ZINC000465642058    0.1300
     51 H51         2.0626    4.8249   56.8309 H       1  ZINC000465642058    0.1200
     52 H52         3.2272    5.2392   54.7013 H       1  ZINC000465642058    0.1200
     53 H53         2.0951    4.7654   52.5665 H       1  ZINC000465642058    0.1200
     54 H54        -0.2000    3.8735   52.5616 H       1  ZINC000465642058    0.1200
     55 H55         1.3773    4.3886   44.8388 H       1  ZINC000465642058    0.0700
     56 H56         1.0361    2.6740   44.5035 H       1  ZINC000465642058    0.0800
     57 H57        -0.2804    3.8707   44.4487 H       1  ZINC000465642058    0.0700
     58 H58        -0.3458    1.3234   46.8319 H       1  ZINC000465642058    0.0900
     59 H59        -1.4186    2.2868   45.7629 H       1  ZINC000465642058    0.1000
@<TRIPOS>BOND
     1     1     2    1
     2     1    33    1
     3     1    34    1
     4     1    35    1
     5     2     3    1
     6     2    36    1
     7     2    37    1
     8     3     4    1
     9     4     9   ar
    10     4     5   ar
    11     5     6   ar
    12     5    38    1
    13     6    32    1
    14     6     7   ar
    15     7     8   ar
    16     7    28    1
    17     8     9   ar
    18     8    39    1
    19     9    10    1
    20    10    11    1
    21    10    40    1
    22    10    41    1
    23    11    12   am
    24    11    42    1
    25    12    13    2
    26    12    14   am
    27    14    15    1
    28    14    21    1
    29    15    16    1
    30    15    43    1
    31    15    44    1
    32    16    20    1
    33    16    17    2
    34    17    18    1
    35    18    19    1
    36    18    45    1
    37    19    20    2
    38    19    46    1
    39    20    47    1
    40    21    22    1
    41    21    48    1
    42    21    49    1
    43    22    27   ar
    44    22    23   ar
    45    23    24   ar
    46    23    50    1
    47    24    25   ar
    48    24    51    1
    49    25    26   ar
    50    25    52    1
    51    26    27   ar
    52    26    53    1
    53    27    54    1
    54    28    29    1
    55    29    30    1
    56    29    31    1
    57    29    32    1
    58    31    55    1
    59    31    56    1
    60    31    57    1
    61    32    58    1
    62    32    59    1
@<TRIPOS>SUBSTRUCTURE
     1 ZINC000465642058        1 TEMP              0 ****  ****    0 ROOT


##########                                Name:    ZINC001090961577
##########                DOCK_Rotatable_Bonds:                   9
##########                         Heavy_Atoms:                  24
##########                    Molecular_Weight:             352.458
##########                DOCK_Rotatable_Bonds:                   9
##########                       Formal_Charge:                0.02
##########                     HBond_Acceptors:                   8
##########                        HBond_Donors:                   1
##########                         Heavy_Atoms:                  24
##########                          Grid_Score:          -32.152668
##########                     Grid_vdw_energy:          -31.936245
##########                      Grid_es_energy:           -0.216423
##########           Internal_energy_repulsive:            9.904143

@<TRIPOS>MOLECULE
ZINC001090961577
 48 49 1 0 0
SMALL
USER_CHARGES


@<TRIPOS>ATOM
      1 C1          5.9925    0.1104   49.6607 C.3     1  ZINC001090961577   -0.1400
      2 C2          5.2990   -0.3634   50.9397 C.3     1  ZINC001090961577   -0.0900
      3 S3          4.0465   -1.6076   50.5230 S.3     1  ZINC001090961577   -0.2700
      4 C4          2.7397   -0.6244   49.7383 C.3     1  ZINC001090961577   -0.0700
      5 C5          2.4687   -1.1652   48.3330 C.3     1  ZINC001090961577   -0.1200
      6 C6          3.2738   -0.3809   47.3290 C.2     1  ZINC001090961577    0.5400
      7 O7          4.2791   -0.8612   46.8498 O.2     1  ZINC001090961577   -0.5300
      8 N8          2.8767    0.8541   46.9638 N.am    1  ZINC001090961577   -0.6200
      9 C9          3.5644    1.7252   45.9995 C.3     1  ZINC001090961577    0.1100
     10 C10         2.7348    3.0210   45.8798 C.3     1  ZINC001090961577   -0.1100
     11 H11         3.1354    3.7970   46.5322 H       1  ZINC001090961577    0.0900
     12 C12         2.6930    3.5048   44.4289 C.3     1  ZINC001090961577   -0.1400
     13 C13         1.3263    2.5771   46.3554 C.3     1  ZINC001090961577    0.1500
     14 H14         0.7732    2.0998   45.5464 H       1  ZINC001090961577    0.1200
     15 N15         0.5761    3.7096   46.9038 N.pl3   1  ZINC001090961577   -0.6700
     16 C16        -0.5657    3.4866   47.6444 C.ar    1  ZINC001090961577    0.5900
     17 N17        -1.4002    2.5264   47.2679 N.ar    1  ZINC001090961577   -0.5700
     18 C18        -2.5032    2.2814   47.9494 C.ar    1  ZINC001090961577    0.2700
     19 C19        -2.7861    3.0532   49.0847 C.ar    1  ZINC001090961577   -0.3000
     20 C20        -4.0064    2.8145   49.8767 C.2     1  ZINC001090961577    0.5300
     21 O21        -4.2645    3.5289   50.8251 O.2     1  ZINC001090961577   -0.5100
     22 O22        -4.8356    1.8044   49.5489 O.3     1  ZINC001090961577   -0.3600
     23 C23        -5.8412    1.4326   50.5282 C.3     1  ZINC001090961577    0.0400
     24 C24        -1.8781    4.0573   49.4476 C.ar    1  ZINC001090961577    0.2600
     25 N25        -0.7947    4.2352   48.7157 N.ar    1  ZINC001090961577   -0.5700
     26 C26         1.6772    1.5529   47.4603 C.3     1  ZINC001090961577    0.0900
     27 H27         6.7451    0.8581   49.9111 H       1  ZINC001090961577    0.0700
     28 H28         6.4715   -0.7378   49.1717 H       1  ZINC001090961577    0.0700
     29 H29         5.2548    0.5483   48.9883 H       1  ZINC001090961577    0.0700
     30 H30         6.0366   -0.8013   51.6121 H       1  ZINC001090961577    0.0800
     31 H31         4.8199    0.4849   51.4287 H       1  ZINC001090961577    0.0800
     32 H32         1.8292   -0.6886   50.3342 H       1  ZINC001090961577    0.0900
     33 H33         3.0579    0.4161   49.6721 H       1  ZINC001090961577    0.0900
     34 H34         2.7545   -2.2160   48.2866 H       1  ZINC001090961577    0.1000
     35 H35         1.4076   -1.0669   48.1042 H       1  ZINC001090961577    0.1000
     36 H36         4.5663    1.9584   46.3596 H       1  ZINC001090961577    0.0800
     37 H37         3.6224    1.2312   45.0296 H       1  ZINC001090961577    0.0800
     38 H38         2.2624    2.7267   43.7987 H       1  ZINC001090961577    0.0600
     39 H39         2.0817    4.4050   44.3636 H       1  ZINC001090961577    0.0600
     40 H40         3.7050    3.7275   44.0909 H       1  ZINC001090961577    0.0700
     41 H41         0.8825    4.6164   46.7460 H       1  ZINC001090961577    0.4200
     42 H42        -3.1781    1.4984   47.6367 H       1  ZINC001090961577    0.1800
     43 H43        -6.4399    0.6089   50.1393 H       1  ZINC001090961577    0.1100
     44 H44        -5.3519    1.1221   51.4513 H       1  ZINC001090961577    0.0700
     45 H45        -6.4865    2.2878   50.7288 H       1  ZINC001090961577    0.0700
     46 H46        -2.0603    4.6734   50.3158 H       1  ZINC001090961577    0.1800
     47 H47         0.8558    0.8503   47.6011 H       1  ZINC001090961577    0.0900
     48 H48         1.9032    2.0659   48.3951 H       1  ZINC001090961577    0.0800
@<TRIPOS>BOND
     1     1     2    1
     2     1    27    1
     3     1    28    1
     4     1    29    1
     5     2     3    1
     6     2    30    1
     7     2    31    1
     8     3     4    1
     9     4     5    1
    10     4    32    1
    11     4    33    1
    12     5     6    1
    13     5    34    1
    14     5    35    1
    15     6     7    2
    16     6     8   am
    17     8    26    1
    18     8     9    1
    19     9    10    1
    20     9    36    1
    21     9    37    1
    22    10    11    1
    23    10    12    1
    24    10    13    1
    25    12    38    1
    26    12    39    1
    27    12    40    1
    28    13    14    1
    29    13    15    1
    30    13    26    1
    31    15    16    1
    32    15    41    1
    33    16    25   ar
    34    16    17   ar
    35    17    18   ar
    36    18    19   ar
    37    18    42    1
    38    19    20    1
    39    19    24   ar
    40    20    21    2
    41    20    22    1
    42    22    23    1
    43    23    43    1
    44    23    44    1
    45    23    45    1
    46    24    25   ar
    47    24    46    1
    48    26    47    1
    49    26    48    1
@<TRIPOS>SUBSTRUCTURE
     1 ZINC001090961577        1 TEMP              0 ****  ****    0 ROOT


##########                                Name:    ZINC000298969660
##########                DOCK_Rotatable_Bonds:                  10
##########                         Heavy_Atoms:                  29
##########                    Molecular_Weight:             397.474
##########                DOCK_Rotatable_Bonds:                  10
##########                       Formal_Charge:          -0.0100008
##########                     HBond_Acceptors:                   7
##########                        HBond_Donors:                   2
##########                         Heavy_Atoms:                  29
##########                          Grid_Score:          -32.143368
##########                     Grid_vdw_energy:          -32.497208
##########                      Grid_es_energy:            0.353841
##########           Internal_energy_repulsive:           10.941866

@<TRIPOS>MOLECULE
ZINC000298969660
 56 58 1 0 0
SMALL
USER_CHARGES


@<TRIPOS>ATOM
      1 C1         -0.6462    2.1921   46.3025 C.3     1  ZINC000298969660    0.0800
      2 N2         -0.0361    2.5775   47.5774 N.am    1  ZINC000298969660   -0.6300
      3 C3          1.4212    2.5623   47.7262 C.3     1  ZINC000298969660    0.1400
      4 C4          1.9022    1.1190   47.8887 C.3     1  ZINC000298969660    0.0700
      5 H5          1.2556    0.4537   47.3166 H       1  ZINC000298969660    0.0500
      6 C6          1.8553    0.7287   49.3684 C.3     1  ZINC000298969660   -0.1500
      7 C7          2.3946   -0.6958   49.5301 C.3     1  ZINC000298969660   -0.1200
      8 C8          3.8135   -0.7609   48.9564 C.3     1  ZINC000298969660   -0.1600
      9 C9          3.7848   -0.3130   47.4927 C.3     1  ZINC000298969660    0.0600
     10 O10         3.2441    1.0071   47.4101 O.3     1  ZINC000298969660   -0.3600
     11 C11        -0.8155    2.9462   48.6133 C.2     1  ZINC000298969660    0.7100
     12 O12        -0.3091    3.2675   49.6709 O.2     1  ZINC000298969660   -0.5400
     13 N13        -2.1564    2.9587   48.4768 N.am    1  ZINC000298969660   -0.6900
     14 C14        -2.9656    3.3414   49.5523 C.ar    1  ZINC000298969660    0.2000
     15 C15        -2.8929    4.6356   50.0511 C.ar    1  ZINC000298969660   -0.1800
     16 C16        -3.6914    5.0134   51.1134 C.ar    1  ZINC000298969660   -0.0600
     17 C17        -4.5643    4.1056   51.6819 C.ar    1  ZINC000298969660   -0.2300
     18 C18        -4.6412    2.8109   51.1875 C.ar    1  ZINC000298969660    0.1500
     19 O19        -5.4999    1.9190   51.7479 O.3     1  ZINC000298969660   -0.2900
     20 C20        -6.5208    1.3828   50.9039 C.3     1  ZINC000298969660    0.0400
     21 C21        -7.8147    1.2988   51.6719 C.2     1  ZINC000298969660    0.5100
     22 O22        -8.5112    2.2839   51.7963 O.2     1  ZINC000298969660   -0.4900
     23 N23        -8.1979    0.1288   52.2204 N.am    1  ZINC000298969660   -0.6700
     24 C24        -9.3994    0.0507   52.9335 C.ar    1  ZINC000298969660    0.1400
     25 C25        -9.5842    0.8238   54.0722 C.ar    1  ZINC000298969660   -0.1400
     26 C26       -10.7711    0.7444   54.7738 C.ar    1  ZINC000298969660   -0.1000
     27 C27       -11.7748   -0.1041   54.3438 C.ar    1  ZINC000298969660   -0.1300
     28 C28       -11.5937   -0.8755   53.2105 C.ar    1  ZINC000298969660   -0.1000
     29 C29       -10.4116   -0.7958   52.5007 C.ar    1  ZINC000298969660   -0.1200
     30 C30        -3.8459    2.4299   50.1184 C.ar    1  ZINC000298969660   -0.1500
     31 H31        -0.8400    1.1194   46.3020 H       1  ZINC000298969660    0.0600
     32 H32        -1.5846    2.7309   46.1712 H       1  ZINC000298969660    0.0700
     33 H33         0.0320    2.4391   45.4857 H       1  ZINC000298969660    0.0800
     34 H34         1.8814    3.0011   46.8409 H       1  ZINC000298969660    0.1000
     35 H35         1.7027    3.1404   48.6063 H       1  ZINC000298969660    0.0900
     36 H36         2.4697    1.4187   49.9468 H       1  ZINC000298969660    0.0800
     37 H37         0.8256    0.7708   49.7237 H       1  ZINC000298969660    0.0700
     38 H38         2.4164   -0.9597   50.5874 H       1  ZINC000298969660    0.0700
     39 H39         1.7516   -1.3925   48.9922 H       1  ZINC000298969660    0.0600
     40 H40         4.4675   -0.1010   49.5265 H       1  ZINC000298969660    0.0700
     41 H41         4.1843   -1.7841   49.0171 H       1  ZINC000298969660    0.0700
     42 H42         4.7983   -0.3165   47.0916 H       1  ZINC000298969660    0.0900
     43 H43         3.1629   -0.9973   46.9154 H       1  ZINC000298969660    0.0400
     44 H44        -2.5603    2.7023   47.6330 H       1  ZINC000298969660    0.4100
     45 H45        -2.2113    5.3470   49.6085 H       1  ZINC000298969660    0.1300
     46 H46        -3.6331    6.0200   51.5004 H       1  ZINC000298969660    0.1300
     47 H47        -5.1873    4.4038   52.5122 H       1  ZINC000298969660    0.1300
     48 H48        -6.6538    2.0311   50.0378 H       1  ZINC000298969660    0.1000
     49 H49        -6.2306    0.3864   50.5708 H       1  ZINC000298969660    0.1000
     50 H50        -7.6410   -0.6590   52.1208 H       1  ZINC000298969660    0.4100
     51 H51        -8.8003    1.4861   54.4089 H       1  ZINC000298969660    0.1300
     52 H52       -10.9154    1.3454   55.6595 H       1  ZINC000298969660    0.1300
     53 H53       -12.7019   -0.1646   54.8944 H       1  ZINC000298969660    0.1200
     54 H54       -12.3792   -1.5378   52.8776 H       1  ZINC000298969660    0.1300
     55 H55       -10.2708   -1.3986   51.6157 H       1  ZINC000298969660    0.1300
     56 H56        -3.9044    1.4230   49.7324 H       1  ZINC000298969660    0.1500
@<TRIPOS>BOND
     1     1     2    1
     2     1    31    1
     3     1    32    1
     4     1    33    1
     5     2     3    1
     6     2    11   am
     7     3     4    1
     8     3    34    1
     9     3    35    1
    10     4     5    1
    11     4    10    1
    12     4     6    1
    13     6     7    1
    14     6    36    1
    15     6    37    1
    16     7     8    1
    17     7    38    1
    18     7    39    1
    19     8     9    1
    20     8    40    1
    21     8    41    1
    22     9    10    1
    23     9    42    1
    24     9    43    1
    25    11    12    2
    26    11    13   am
    27    13    14    1
    28    13    44    1
    29    14    30   ar
    30    14    15   ar
    31    15    16   ar
    32    15    45    1
    33    16    17   ar
    34    16    46    1
    35    17    18   ar
    36    17    47    1
    37    18    19    1
    38    18    30   ar
    39    19    20    1
    40    20    21    1
    41    20    48    1
    42    20    49    1
    43    21    22    2
    44    21    23   am
    45    23    24    1
    46    23    50    1
    47    24    29   ar
    48    24    25   ar
    49    25    26   ar
    50    25    51    1
    51    26    27   ar
    52    26    52    1
    53    27    28   ar
    54    27    53    1
    55    28    29   ar
    56    28    54    1
    57    29    55    1
    58    30    56    1
@<TRIPOS>SUBSTRUCTURE
     1 ZINC000298969660        1 TEMP              0 ****  ****    0 ROOT


##########                                Name:    ZINC000046390957
##########                DOCK_Rotatable_Bonds:                   9
##########                         Heavy_Atoms:                  29
##########                    Molecular_Weight:             408.521
##########                DOCK_Rotatable_Bonds:                   9
##########                       Formal_Charge:           0.0100005
##########                     HBond_Acceptors:                   6
##########                        HBond_Donors:                   1
##########                         Heavy_Atoms:                  29
##########                          Grid_Score:          -32.138985
##########                     Grid_vdw_energy:          -29.220619
##########                      Grid_es_energy:           -2.918365
##########           Internal_energy_repulsive:           14.652164

@<TRIPOS>MOLECULE
ZINC000046390957
 53 55 1 0 0
SMALL
USER_CHARGES


@<TRIPOS>ATOM
      1 C1         -5.7418    1.7048   50.6659 C.3     1  ZINC000046390957   -0.1100
      2 C2         -4.4091    2.3995   50.7781 C.ar    1  ZINC000046390957   -0.0600
      3 C3         -3.4874    2.2961   49.7547 C.ar    1  ZINC000046390957   -0.1200
      4 C4         -2.2642    2.9327   49.8570 C.ar    1  ZINC000046390957   -0.1100
      5 C5         -1.9598    3.6751   50.9833 C.ar    1  ZINC000046390957   -0.1200
      6 C6         -2.8774    3.7828   52.0099 C.ar    1  ZINC000046390957   -0.0800
      7 C7         -2.5450    4.5924   53.2368 C.3     1  ZINC000046390957   -0.1100
      8 C8         -4.1087    3.1489   51.9080 C.ar    1  ZINC000046390957    0.1300
      9 N9         -5.0408    3.2564   52.9461 N.am    1  ZINC000046390957   -0.6800
     10 C10        -5.9403    4.2599   52.9429 C.2     1  ZINC000046390957    0.5200
     11 O11        -5.9420    5.0700   52.0401 O.2     1  ZINC000046390957   -0.4900
     12 C12        -6.9441    4.3758   54.0609 C.3     1  ZINC000046390957    0.0700
     13 H13        -7.1996    5.4245   54.2126 H       1  ZINC000046390957    0.1100
     14 C14        -8.2060    3.5910   53.6967 C.3     1  ZINC000046390957   -0.1700
     15 O15        -6.3734    3.8352   55.2818 O.3     1  ZINC000046390957   -0.3300
     16 C16        -6.9650    4.1807   56.4360 C.2     1  ZINC000046390957    0.4700
     17 O17        -7.7594    5.0908   56.4590 O.2     1  ZINC000046390957   -0.4800
     18 C18        -6.6383    3.4334   57.7034 C.3     1  ZINC000046390957   -0.0300
     19 C19        -7.7333    2.4406   57.9975 C.2     1  ZINC000046390957    0.0800
     20 C20        -8.9925    2.6093   57.5828 C.2     1  ZINC000046390957   -0.2500
     21 S21        -9.9358    1.2287   58.1382 S.3     1  ZINC000046390957    0.1300
     22 C22        -8.5432    0.5619   58.8727 C.2     1  ZINC000046390957    0.0600
     23 C23        -8.5072   -0.7405   59.6301 C.3     1  ZINC000046390957    0.0000
     24 C24        -9.8469   -0.9828   60.2764 C.ar    1  ZINC000046390957   -0.0900
     25 C25       -10.1851   -0.3138   61.4379 C.ar    1  ZINC000046390957   -0.0900
     26 C26       -11.4139   -0.5362   62.0307 C.ar    1  ZINC000046390957   -0.1200
     27 C27       -12.3046   -1.4272   61.4619 C.ar    1  ZINC000046390957   -0.1200
     28 C28       -11.9668   -2.0955   60.2999 C.ar    1  ZINC000046390957   -0.1200
     29 C29       -10.7397   -1.8700   59.7047 C.ar    1  ZINC000046390957   -0.1100
     30 N30        -7.5264    1.3325   58.6798 N.2     1  ZINC000046390957   -0.4500
     31 H31        -6.4288    2.3270   50.0924 H       1  ZINC000046390957    0.0800
     32 H32        -5.6112    0.7474   50.1614 H       1  ZINC000046390957    0.0700
     33 H33        -6.1493    1.5374   51.6630 H       1  ZINC000046390957    0.0600
     34 H34        -3.7222    1.7171   48.8737 H       1  ZINC000046390957    0.1300
     35 H35        -1.5449    2.8498   49.0557 H       1  ZINC000046390957    0.1300
     36 H36        -1.0034    4.1709   51.0603 H       1  ZINC000046390957    0.1300
     37 H37        -2.8636    5.6242   53.0885 H       1  ZINC000046390957    0.0700
     38 H38        -3.0620    4.1729   54.0999 H       1  ZINC000046390957    0.0600
     39 H39        -1.4691    4.5655   53.4094 H       1  ZINC000046390957    0.0700
     40 H40        -5.0394    2.6086   53.6681 H       1  ZINC000046390957    0.4100
     41 H41        -8.6344    3.9968   52.7802 H       1  ZINC000046390957    0.0800
     42 H42        -7.9506    2.5422   53.5451 H       1  ZINC000046390957    0.0800
     43 H43        -8.9321    3.6748   54.5054 H       1  ZINC000046390957    0.0800
     44 H44        -5.6926    2.9056   57.5805 H       1  ZINC000046390957    0.1200
     45 H45        -6.5559    4.1390   58.5300 H       1  ZINC000046390957    0.1300
     46 H46        -9.3659    3.4445   57.0088 H       1  ZINC000046390957    0.1800
     47 H47        -8.2833   -1.5552   58.9414 H       1  ZINC000046390957    0.1000
     48 H48        -7.7362   -0.6925   60.3990 H       1  ZINC000046390957    0.1000
     49 H49        -9.4891    0.3823   61.8822 H       1  ZINC000046390957    0.1200
     50 H50       -11.6778   -0.0140   62.9385 H       1  ZINC000046390957    0.1200
     51 H51       -13.2644   -1.6014   61.9256 H       1  ZINC000046390957    0.1200
     52 H52       -12.6625   -2.7919   59.8558 H       1  ZINC000046390957    0.1200
     53 H53       -10.4757   -2.3922   58.7970 H       1  ZINC000046390957    0.1200
@<TRIPOS>BOND
     1     1     2    1
     2     1    31    1
     3     1    32    1
     4     1    33    1
     5     2     8   ar
     6     2     3   ar
     7     3     4   ar
     8     3    34    1
     9     4     5   ar
    10     4    35    1
    11     5     6   ar
    12     5    36    1
    13     6     7    1
    14     6     8   ar
    15     7    37    1
    16     7    38    1
    17     7    39    1
    18     8     9    1
    19     9    10   am
    20     9    40    1
    21    10    11    2
    22    10    12    1
    23    12    13    1
    24    12    14    1
    25    12    15    1
    26    14    41    1
    27    14    42    1
    28    14    43    1
    29    15    16    1
    30    16    17    2
    31    16    18    1
    32    18    19    1
    33    18    44    1
    34    18    45    1
    35    19    30    1
    36    19    20    2
    37    20    21    1
    38    20    46    1
    39    21    22    1
    40    22    23    1
    41    22    30    2
    42    23    24    1
    43    23    47    1
    44    23    48    1
    45    24    29   ar
    46    24    25   ar
    47    25    26   ar
    48    25    49    1
    49    26    27   ar
    50    26    50    1
    51    27    28   ar
    52    27    51    1
    53    28    29   ar
    54    28    52    1
    55    29    53    1
@<TRIPOS>SUBSTRUCTURE
     1 ZINC000046390957        1 TEMP              0 ****  ****    0 ROOT


##########                                Name:    ZINC001362587626
##########                DOCK_Rotatable_Bonds:                   9
##########                         Heavy_Atoms:                  25
##########                    Molecular_Weight:             346.346
##########                DOCK_Rotatable_Bonds:                   9
##########                       Formal_Charge:        -4.02331e-07
##########                     HBond_Acceptors:                  10
##########                        HBond_Donors:                   2
##########                         Heavy_Atoms:                  25
##########                          Grid_Score:          -32.133266
##########                     Grid_vdw_energy:          -30.586308
##########                      Grid_es_energy:           -1.546958
##########           Internal_energy_repulsive:            8.166504

@<TRIPOS>MOLECULE
ZINC001362587626
 43 45 1 0 0
SMALL
USER_CHARGES


@<TRIPOS>ATOM
      1 C1         -3.9985    5.5495   52.0930 C.3     1  ZINC001362587626   -0.1600
      2 C2         -4.4383    4.2832   51.3553 C.3     1  ZINC001362587626    0.1300
      3 H3         -5.0332    4.5583   50.4844 H       1  ZINC001362587626    0.1200
      4 N4         -5.2424    3.4498   52.2526 N.am    1  ZINC001362587626   -0.7100
      5 C5         -6.4748    3.0522   51.8790 C.2     1  ZINC001362587626    0.5100
      6 O6         -6.9175    3.3830   50.7995 O.2     1  ZINC001362587626   -0.5000
      7 C7         -7.3026    2.1962   52.8029 C.3     1  ZINC001362587626    0.1000
      8 N8         -7.3131    0.8162   52.3113 N.pl3   1  ZINC001362587626   -0.3100
      9 C9         -8.2734   -0.1019   52.5271 C.2     1  ZINC001362587626    0.1600
     10 N10        -7.8917   -1.1964   51.9151 N.2     1  ZINC001362587626   -0.3000
     11 N11        -6.7565   -0.9626   51.3527 N.2     1  ZINC001362587626   -0.0700
     12 N12        -6.4065    0.2543   51.5855 N.2     1  ZINC001362587626   -0.0700
     13 C13        -3.2219    3.5133   50.9099 C.2     1  ZINC001362587626    0.5100
     14 O14        -2.8064    2.5935   51.5828 O.2     1  ZINC001362587626   -0.5200
     15 N15        -2.5956    3.8466   49.7640 N.am    1  ZINC001362587626   -0.6600
     16 C16        -1.4647    3.1307   49.3500 C.ar    1  ZINC001362587626    0.1000
     17 C17        -0.3433    3.0706   50.1666 C.ar    1  ZINC001362587626   -0.1000
     18 C18         0.7708    2.3645   49.7582 C.ar    1  ZINC001362587626   -0.1900
     19 C19         0.7701    1.7155   48.5321 C.ar    1  ZINC001362587626    0.1200
     20 O20         1.8677    1.0207   48.1304 O.3     1  ZINC001362587626   -0.2800
     21 C21         1.9080   -0.3711   48.4519 C.3     1  ZINC001362587626    0.0100
     22 C22         3.2583   -1.0429   48.1388 C.3     1  ZINC001362587626    0.0200
     23 O23         3.6098   -0.7110   49.4972 O.3     1  ZINC001362587626   -0.3700
     24 C24         2.2353   -0.6590   49.9292 C.3     1  ZINC001362587626    0.0400
     25 C25        -0.3500    1.7747   47.7159 C.ar    1  ZINC001362587626   -0.1300
     26 C26        -1.4668    2.4761   48.1255 C.ar    1  ZINC001362587626   -0.0800
     27 H27        -3.4035    5.2745   52.9640 H       1  ZINC001362587626    0.0700
     28 H28        -3.4002    6.1696   51.4254 H       1  ZINC001362587626    0.0800
     29 H29        -4.8783    6.1065   52.4151 H       1  ZINC001362587626    0.0800
     30 H30        -4.8878    3.1842   53.1154 H       1  ZINC001362587626    0.4100
     31 H31        -6.8731    2.2220   53.8043 H       1  ZINC001362587626    0.1500
     32 H32        -8.3230    2.5783   52.8351 H       1  ZINC001362587626    0.1400
     33 H33        -9.1817    0.0361   53.0949 H       1  ZINC001362587626    0.2400
     34 H34        -2.9279    4.5820   49.2259 H       1  ZINC001362587626    0.4100
     35 H35        -0.3424    3.5764   51.1208 H       1  ZINC001362587626    0.1300
     36 H36         1.6432    2.3178   50.3932 H       1  ZINC001362587626    0.1400
     37 H37         1.0439   -0.9199   48.0774 H       1  ZINC001362587626    0.0900
     38 H38         3.1850   -2.1141   47.9514 H       1  ZINC001362587626    0.1000
     39 H39         3.8494   -0.5166   47.3893 H       1  ZINC001362587626    0.1000
     40 H40         2.0149    0.1716   50.5998 H       1  ZINC001362587626    0.1000
     41 H41         1.8496   -1.6130   50.2886 H       1  ZINC001362587626    0.1000
     42 H42        -0.3500    1.2692   46.7615 H       1  ZINC001362587626    0.1400
     43 H43        -2.3390    2.5217   47.4901 H       1  ZINC001362587626    0.1500
@<TRIPOS>BOND
     1     1     2    1
     2     1    27    1
     3     1    28    1
     4     1    29    1
     5     2     3    1
     6     2     4    1
     7     2    13    1
     8     4     5   am
     9     4    30    1
    10     5     6    2
    11     5     7    1
    12     7     8    1
    13     7    31    1
    14     7    32    1
    15     8    12    1
    16     8     9    1
    17     9    10    2
    18     9    33    1
    19    10    11    1
    20    11    12    2
    21    13    14    2
    22    13    15   am
    23    15    16    1
    24    15    34    1
    25    16    26   ar
    26    16    17   ar
    27    17    18   ar
    28    17    35    1
    29    18    19   ar
    30    18    36    1
    31    19    20    1
    32    19    25   ar
    33    20    21    1
    34    21    24    1
    35    21    22    1
    36    21    37    1
    37    22    23    1
    38    22    38    1
    39    22    39    1
    40    23    24    1
    41    24    40    1
    42    24    41    1
    43    25    26   ar
    44    25    42    1
    45    26    43    1
@<TRIPOS>SUBSTRUCTURE
     1 ZINC001362587626        1 TEMP              0 ****  ****    0 ROOT


##########                                Name:    ZINC000429196987
##########                DOCK_Rotatable_Bonds:                   7
##########                         Heavy_Atoms:                  28
##########                    Molecular_Weight:             403.505
##########                DOCK_Rotatable_Bonds:                   7
##########                       Formal_Charge:          -0.0399997
##########                     HBond_Acceptors:                   9
##########                        HBond_Donors:                   1
##########                         Heavy_Atoms:                  28
##########                          Grid_Score:          -32.109833
##########                     Grid_vdw_energy:          -31.820595
##########                      Grid_es_energy:           -0.289236
##########           Internal_energy_repulsive:           15.470332

@<TRIPOS>MOLECULE
ZINC000429196987
 53 55 1 0 0
SMALL
USER_CHARGES


@<TRIPOS>ATOM
      1 C1         -1.5192    5.0556   48.9877 C.3     1  ZINC000429196987    0.0800
      2 N2         -1.1868    4.4389   50.2744 N.am    1  ZINC000429196987   -0.6300
      3 C3          0.1677    4.5639   50.8183 C.3     1  ZINC000429196987    0.1600
      4 C4          0.9411    3.3018   50.5356 C.ar    1  ZINC000429196987   -0.0600
      5 C5          1.8553    2.8299   51.4589 C.ar    1  ZINC000429196987   -0.1300
      6 C6          2.5646    1.6721   51.1995 C.ar    1  ZINC000429196987   -0.0300
      7 C7          2.3596    0.9861   50.0171 C.ar    1  ZINC000429196987   -0.6600
      8 S8          3.2642   -0.4894   49.6863 S.o2    1  ZINC000429196987    2.5000
      9 C9          1.9973   -1.7835   49.5824 C.3     1  ZINC000429196987   -0.6500
     10 O10         3.8508   -0.2625   48.4121 O.2     1  ZINC000429196987   -0.9400
     11 O11         4.0706   -0.6725   50.8419 O.2     1  ZINC000429196987   -0.9400
     12 C12         1.4444    1.4573   49.0944 C.ar    1  ZINC000429196987   -0.0300
     13 C13         0.7322    2.6129   49.3554 C.ar    1  ZINC000429196987   -0.1100
     14 C14        -2.1270    3.7568   50.9577 C.2     1  ZINC000429196987    0.7100
     15 O15        -1.8515    3.2463   52.0263 O.2     1  ZINC000429196987   -0.5800
     16 N16        -3.3727    3.6404   50.4566 N.am    1  ZINC000429196987   -0.7400
     17 C17        -4.3943    2.8974   51.1985 C.3     1  ZINC000429196987    0.1600
     18 C18        -5.4742    3.8649   51.6911 C.3     1  ZINC000429196987   -0.1300
     19 C19        -6.5689    3.0754   52.4125 C.3     1  ZINC000429196987    0.0700
     20 N20        -7.1516    2.0909   51.4918 N.3     1  ZINC000429196987   -0.4700
     21 C21        -8.2374    1.4461   52.0738 C.ar    1  ZINC000429196987    0.2500
     22 C22        -9.3874    2.1647   52.3984 C.ar    1  ZINC000429196987   -0.1300
     23 C23       -10.4416    1.4754   52.9766 C.ar    1  ZINC000429196987   -0.1000
     24 C24       -10.2883    0.1138   53.1968 C.ar    1  ZINC000429196987    0.0200
     25 N25        -9.1646   -0.4864   52.8583 N.ar    1  ZINC000429196987   -0.2200
     26 N26        -8.1863    0.1445   52.3174 N.ar    1  ZINC000429196987   -0.2800
     27 C27        -6.1434    1.1225   51.0425 C.3     1  ZINC000429196987    0.0600
     28 C28        -5.0358    1.8535   50.2802 C.3     1  ZINC000429196987   -0.1200
     29 H29        -1.3275    4.3448   48.1839 H       1  ZINC000429196987    0.0600
     30 H30        -2.5725    5.3364   48.9807 H       1  ZINC000429196987    0.0700
     31 H31        -0.9053    5.9442   48.8412 H       1  ZINC000429196987    0.0800
     32 H32         0.6703    5.4106   50.3506 H       1  ZINC000429196987    0.1000
     33 H33         0.1136    4.7233   51.8952 H       1  ZINC000429196987    0.0900
     34 H34         2.0155    3.3659   52.3827 H       1  ZINC000429196987    0.1300
     35 H35         3.2793    1.3037   51.9205 H       1  ZINC000429196987    0.1400
     36 H36         1.2995   -1.5453   48.7795 H       1  ZINC000429196987    0.1300
     37 H37         2.4733   -2.7423   49.3776 H       1  ZINC000429196987    0.1300
     38 H38         1.4577   -1.8403   50.5278 H       1  ZINC000429196987    0.1300
     39 H39         1.2838    0.9211   48.1707 H       1  ZINC000429196987    0.1400
     40 H40         0.0173    2.9810   48.6346 H       1  ZINC000429196987    0.1400
     41 H41        -3.5929    4.0487   49.6047 H       1  ZINC000429196987    0.4000
     42 H42        -3.9343    2.3986   52.0516 H       1  ZINC000429196987    0.0900
     43 H43        -5.0311    4.5849   52.3792 H       1  ZINC000429196987    0.0800
     44 H44        -5.9060    4.3919   50.8404 H       1  ZINC000429196987    0.0700
     45 H45        -6.1390    2.5598   53.2711 H       1  ZINC000429196987    0.0600
     46 H46        -7.3464    3.7598   52.7519 H       1  ZINC000429196987    0.0900
     47 H47        -9.4543    3.2253   52.2057 H       1  ZINC000429196987    0.1500
     48 H48       -11.3554    1.9830   53.2482 H       1  ZINC000429196987    0.1500
     49 H49       -11.0897   -0.4541   53.6458 H       1  ZINC000429196987    0.1700
     50 H50        -5.7155    0.6159   51.9076 H       1  ZINC000429196987    0.0500
     51 H51        -6.6117    0.3883   50.3869 H       1  ZINC000429196987    0.0900
     52 H52        -5.4608    2.3489   49.4072 H       1  ZINC000429196987    0.0800
     53 H53        -4.2798    1.1365   49.9603 H       1  ZINC000429196987    0.0800
@<TRIPOS>BOND
     1     1     2    1
     2     1    29    1
     3     1    30    1
     4     1    31    1
     5     2     3    1
     6     2    14   am
     7     3     4    1
     8     3    32    1
     9     3    33    1
    10     4    13   ar
    11     4     5   ar
    12     5     6   ar
    13     5    34    1
    14     6     7   ar
    15     6    35    1
    16     7     8    1
    17     7    12   ar
    18     8     9    1
    19     8    10    2
    20     8    11    2
    21     9    36    1
    22     9    37    1
    23     9    38    1
    24    12    13   ar
    25    12    39    1
    26    13    40    1
    27    14    15    2
    28    14    16   am
    29    16    17    1
    30    16    41    1
    31    17    28    1
    32    17    18    1
    33    17    42    1
    34    18    19    1
    35    18    43    1
    36    18    44    1
    37    19    20    1
    38    19    45    1
    39    19    46    1
    40    20    21    1
    41    20    27    1
    42    21    26   ar
    43    21    22   ar
    44    22    23   ar
    45    22    47    1
    46    23    24   ar
    47    23    48    1
    48    24    25   ar
    49    24    49    1
    50    25    26   ar
    51    27    28    1
    52    27    50    1
    53    27    51    1
    54    28    52    1
    55    28    53    1
@<TRIPOS>SUBSTRUCTURE
     1 ZINC000429196987        1 TEMP              0 ****  ****    0 ROOT


##########                                Name:    ZINC000846412382
##########                DOCK_Rotatable_Bonds:                   6
##########                         Heavy_Atoms:                  26
##########                    Molecular_Weight:             370.475
##########                DOCK_Rotatable_Bonds:                   6
##########                       Formal_Charge:               -0.03
##########                     HBond_Acceptors:                   7
##########                        HBond_Donors:                   4
##########                         Heavy_Atoms:                  26
##########                          Grid_Score:          -32.105862
##########                     Grid_vdw_energy:          -31.958685
##########                      Grid_es_energy:           -0.147178
##########           Internal_energy_repulsive:           23.890469

@<TRIPOS>MOLECULE
ZINC000846412382
 48 50 1 0 0
SMALL
USER_CHARGES


@<TRIPOS>ATOM
      1 C1         -0.0388    3.4821   50.9689 C.3     1  ZINC000846412382   -0.1400
      2 C2         -1.0194    3.0402   49.9134 C.2     1  ZINC000846412382    0.0300
      3 C3         -0.6461    2.7869   48.6526 C.2     1  ZINC000846412382   -0.2700
      4 C4          0.7279    2.9035   48.1491 C.2     1  ZINC000846412382    0.6000
      5 O5          1.1027    3.9424   47.6387 O.2     1  ZINC000846412382   -0.5200
      6 N6          1.5741    1.8596   48.2522 N.am    1  ZINC000846412382   -0.7100
      7 C7          2.9449    1.9753   47.7482 C.3     1  ZINC000846412382    0.1200
      8 H8          2.9721    2.6972   46.9319 H       1  ZINC000846412382    0.1000
      9 C9          3.8651    2.4461   48.8762 C.3     1  ZINC000846412382   -0.1700
     10 C10         3.4180    0.6122   47.2394 C.3     1  ZINC000846412382    0.1700
     11 C11         4.7062    0.7879   46.4328 C.3     1  ZINC000846412382   -0.1400
     12 O12         2.4089    0.0383   46.4060 O.3     1  ZINC000846412382   -0.5500
     13 C13         3.6794   -0.2984   48.4114 C.ar    1  ZINC000846412382   -0.1200
     14 C14         2.6380   -1.0050   48.9833 C.ar    1  ZINC000846412382   -0.1100
     15 C15         2.8778   -1.8403   50.0584 C.ar    1  ZINC000846412382   -0.1200
     16 C16         4.1590   -1.9694   50.5611 C.ar    1  ZINC000846412382   -0.1200
     17 C17         5.2005   -1.2633   49.9886 C.ar    1  ZINC000846412382   -0.1200
     18 C18         4.9614   -0.4314   48.9109 C.ar    1  ZINC000846412382   -0.1000
     19 S19        -2.0261    2.2959   47.6851 S.3     1  ZINC000846412382    0.2000
     20 C20        -3.1092    2.4521   49.0615 C.ar    1  ZINC000846412382    0.1400
     21 N21        -4.4261    2.2464   49.1769 N.ar    1  ZINC000846412382   -0.5300
     22 C22        -5.0427    2.4268   50.3224 C.ar    1  ZINC000846412382    0.3900
     23 C23        -6.5275    2.1803   50.3969 C.3     1  ZINC000846412382   -0.0900
     24 N24        -4.4050    2.8166   51.4112 N.ar    1  ZINC000846412382   -0.5800
     25 C25        -3.1008    3.0462   51.3995 C.ar    1  ZINC000846412382    0.5100
     26 N26        -2.4503    3.4531   52.5468 N.pl3   1  ZINC000846412382   -0.8300
     27 C27        -2.3795    2.8615   50.1862 C.ar    1  ZINC000846412382   -0.2500
     28 H28         0.3034    2.6144   51.5328 H       1  ZINC000846412382    0.0800
     29 H29         0.8142    3.9655   50.4928 H       1  ZINC000846412382    0.1100
     30 H30        -0.5249    4.1860   51.6445 H       1  ZINC000846412382    0.0700
     31 H31         1.2757    1.0317   48.6602 H       1  ZINC000846412382    0.4000
     32 H32         3.8378    1.7241   49.6924 H       1  ZINC000846412382    0.0600
     33 H33         4.8849    2.5322   48.5012 H       1  ZINC000846412382    0.0800
     34 H34         3.5280    3.4172   49.2387 H       1  ZINC000846412382    0.0700
     35 H35         5.4760    1.2256   47.0684 H       1  ZINC000846412382    0.0700
     36 H36         5.0433   -0.1832   46.0703 H       1  ZINC000846412382    0.0700
     37 H37         4.5172    1.4465   45.5852 H       1  ZINC000846412382    0.0700
     38 H38         2.6274   -0.8434   46.0744 H       1  ZINC000846412382    0.3800
     39 H39         1.6371   -0.9042   48.5905 H       1  ZINC000846412382    0.1300
     40 H40         2.0641   -2.3918   50.5057 H       1  ZINC000846412382    0.1200
     41 H41         4.3462   -2.6213   51.4015 H       1  ZINC000846412382    0.1200
     42 H42         6.2014   -1.3639   50.3816 H       1  ZINC000846412382    0.1200
     43 H43         5.7751    0.1202   48.4635 H       1  ZINC000846412382    0.1300
     44 H44        -6.7101    1.1394   50.6639 H       1  ZINC000846412382    0.0900
     45 H45        -6.9664    2.8316   51.1528 H       1  ZINC000846412382    0.0900
     46 H46        -6.9800    2.3917   49.4281 H       1  ZINC000846412382    0.0900
     47 H47        -2.9492    3.8762   53.2631 H       1  ZINC000846412382    0.4100
     48 H48        -1.4944    3.3159   52.6368 H       1  ZINC000846412382    0.4200
@<TRIPOS>BOND
     1     1     2    1
     2     1    28    1
     3     1    29    1
     4     1    30    1
     5     2    27    1
     6     2     3    2
     7     3     4    1
     8     3    19    1
     9     4     5    2
    10     4     6   am
    11     6     7    1
    12     6    31    1
    13     7     8    1
    14     7     9    1
    15     7    10    1
    16     9    32    1
    17     9    33    1
    18     9    34    1
    19    10    11    1
    20    10    12    1
    21    10    13    1
    22    11    35    1
    23    11    36    1
    24    11    37    1
    25    12    38    1
    26    13    18   ar
    27    13    14   ar
    28    14    15   ar
    29    14    39    1
    30    15    16   ar
    31    15    40    1
    32    16    17   ar
    33    16    41    1
    34    17    18   ar
    35    17    42    1
    36    18    43    1
    37    19    20    1
    38    20    27   ar
    39    20    21   ar
    40    21    22   ar
    41    22    23    1
    42    22    24   ar
    43    23    44    1
    44    23    45    1
    45    23    46    1
    46    24    25   ar
    47    25    26    1
    48    25    27   ar
    49    26    47    1
    50    26    48    1
@<TRIPOS>SUBSTRUCTURE
     1 ZINC000846412382        1 TEMP              0 ****  ****    0 ROOT


##########                                Name:    ZINC001492779707
##########                DOCK_Rotatable_Bonds:                   8
##########                         Heavy_Atoms:                  27
##########                    Molecular_Weight:             374.483
##########                DOCK_Rotatable_Bonds:                   8
##########                       Formal_Charge:           0.0199998
##########                     HBond_Acceptors:                   7
##########                        HBond_Donors:                   0
##########                         Heavy_Atoms:                  27
##########                          Grid_Score:          -32.091316
##########                     Grid_vdw_energy:          -31.014462
##########                      Grid_es_energy:           -1.076855
##########           Internal_energy_repulsive:           16.381222

@<TRIPOS>MOLECULE
ZINC001492779707
 57 59 1 0 0
SMALL
USER_CHARGES


@<TRIPOS>ATOM
      1 C1          3.2006   -1.3158   48.9981 C.3     1  ZINC001492779707   -0.0700
      2 C2          2.6992   -0.2926   48.0120 C.2     1  ZINC001492779707    0.1800
      3 N3          2.8657   -0.3190   46.7199 N.2     1  ZINC001492779707   -0.2900
      4 N4          2.3097    0.7079   46.1828 N.2     1  ZINC001492779707   -0.3100
      5 C5          1.7539    1.4504   47.1111 C.2     1  ZINC001492779707    0.3400
      6 N6          1.0629    2.6354   46.9140 N.3     1  ZINC001492779707   -0.4600
      7 C7          1.7163    3.4618   45.8902 C.3     1  ZINC001492779707    0.0300
      8 C8         -0.3397    2.3748   46.5638 C.3     1  ZINC001492779707    0.1100
      9 C9         -1.2379    2.9397   47.6340 C.ar    1  ZINC001492779707   -0.0400
     10 C10        -1.0803    4.2494   48.0476 C.ar    1  ZINC001492779707   -0.1300
     11 C11        -1.9029    4.7707   49.0294 C.ar    1  ZINC001492779707   -0.0800
     12 C12        -2.8843    3.9836   49.5993 C.ar    1  ZINC001492779707   -0.2100
     13 C13        -3.0445    2.6688   49.1860 C.ar    1  ZINC001492779707    0.1300
     14 O14        -4.0099    1.8924   49.7450 O.3     1  ZINC001492779707   -0.3100
     15 C15        -5.0567    2.5646   50.4481 C.3     1  ZINC001492779707    0.0800
     16 C16        -6.3571    1.7708   50.3071 C.3     1  ZINC001492779707   -0.1500
     17 C17        -4.6862    2.6780   51.9281 C.3     1  ZINC001492779707   -0.1800
     18 C18        -2.2219    2.1499   48.1971 C.ar    1  ZINC001492779707   -0.1400
     19 N19         1.9799    0.8324   48.3064 N.pl3   1  ZINC001492779707   -0.4600
     20 C20         1.5496    1.2853   49.6316 C.3     1  ZINC001492779707    0.1200
     21 C21         2.5757    2.2727   50.1912 C.3     1  ZINC001492779707   -0.1200
     22 C22         2.1047    2.7788   51.5561 C.3     1  ZINC001492779707    0.0600
     23 H23         2.0081    1.9380   52.2429 H       1  ZINC001492779707    0.0800
     24 C24         3.1237    3.7784   52.1108 C.3     1  ZINC001492779707    0.0300
     25 O25         2.6230    4.3302   53.3322 O.3     1  ZINC001492779707   -0.3800
     26 C26         1.3568    4.9809   53.1899 C.3     1  ZINC001492779707    0.0200
     27 C27         0.3378    3.9814   52.6353 C.3     1  ZINC001492779707    0.0300
     28 O28         0.8377    3.4283   51.4140 O.3     1  ZINC001492779707   -0.3800
     29 H29         2.4479   -2.0931   49.1296 H       1  ZINC001492779707    0.0900
     30 H30         4.1217   -1.7616   48.6225 H       1  ZINC001492779707    0.1000
     31 H31         3.3951   -0.8327   49.9557 H       1  ZINC001492779707    0.0800
     32 H32         1.6508    2.9621   44.9237 H       1  ZINC001492779707    0.0500
     33 H33         1.2190    4.4301   45.8330 H       1  ZINC001492779707    0.0900
     34 H34         2.7639    3.6064   46.1542 H       1  ZINC001492779707    0.0700
     35 H35        -0.5699    2.8480   45.6092 H       1  ZINC001492779707    0.0700
     36 H36        -0.5007    1.2997   46.4845 H       1  ZINC001492779707    0.0900
     37 H37        -0.3132    4.8664   47.6033 H       1  ZINC001492779707    0.1200
     38 H38        -1.7775    5.7941   49.3509 H       1  ZINC001492779707    0.1300
     39 H39        -3.5263    4.3910   50.3663 H       1  ZINC001492779707    0.1300
     40 H40        -5.1929    3.5620   50.0301 H       1  ZINC001492779707    0.0700
     41 H41        -6.2210    0.7733   50.7251 H       1  ZINC001492779707    0.0700
     42 H42        -7.1557    2.2836   50.8434 H       1  ZINC001492779707    0.0800
     43 H43        -6.6210    1.6900   49.2527 H       1  ZINC001492779707    0.0700
     44 H44        -3.7598    3.2434   52.0285 H       1  ZINC001492779707    0.0600
     45 H45        -5.4848    3.1908   52.4643 H       1  ZINC001492779707    0.0700
     46 H46        -4.5501    1.6805   52.3461 H       1  ZINC001492779707    0.0700
     47 H47        -2.3446    1.1268   47.8737 H       1  ZINC001492779707    0.1300
     48 H48         0.5797    1.7760   49.5507 H       1  ZINC001492779707    0.1000
     49 H49         1.4684    0.4280   50.2998 H       1  ZINC001492779707    0.1000
     50 H50         3.5382    1.7731   50.3013 H       1  ZINC001492779707    0.0900
     51 H51         2.6797    3.1151   49.5074 H       1  ZINC001492779707    0.0800
     52 H52         4.0678    3.2681   52.3016 H       1  ZINC001492779707    0.1100
     53 H53         3.2806    4.5783   51.3870 H       1  ZINC001492779707    0.0600
     54 H54         1.0213    5.3415   54.1623 H       1  ZINC001492779707    0.1100
     55 H55         1.4543    5.8211   52.5026 H       1  ZINC001492779707    0.0600
     56 H56         0.1809    3.1815   53.3589 H       1  ZINC001492779707    0.0600
     57 H57        -0.6063    4.4917   52.4444 H       1  ZINC001492779707    0.1100
@<TRIPOS>BOND
     1     1     2    1
     2     1    29    1
     3     1    30    1
     4     1    31    1
     5     2    19    1
     6     2     3    2
     7     3     4    1
     8     4     5    2
     9     5     6    1
    10     5    19    1
    11     6     7    1
    12     6     8    1
    13     7    32    1
    14     7    33    1
    15     7    34    1
    16     8     9    1
    17     8    35    1
    18     8    36    1
    19     9    18   ar
    20     9    10   ar
    21    10    11   ar
    22    10    37    1
    23    11    12   ar
    24    11    38    1
    25    12    13   ar
    26    12    39    1
    27    13    14    1
    28    13    18   ar
    29    14    15    1
    30    15    16    1
    31    15    17    1
    32    15    40    1
    33    16    41    1
    34    16    42    1
    35    16    43    1
    36    17    44    1
    37    17    45    1
    38    17    46    1
    39    18    47    1
    40    19    20    1
    41    20    21    1
    42    20    48    1
    43    20    49    1
    44    21    22    1
    45    21    50    1
    46    21    51    1
    47    22    23    1
    48    22    28    1
    49    22    24    1
    50    24    25    1
    51    24    52    1
    52    24    53    1
    53    25    26    1
    54    26    27    1
    55    26    54    1
    56    26    55    1
    57    27    28    1
    58    27    56    1
    59    27    57    1
@<TRIPOS>SUBSTRUCTURE
     1 ZINC001492779707        1 TEMP              0 ****  ****    0 ROOT


##########                                Name:    ZINC000919225759
##########                DOCK_Rotatable_Bonds:                   4
##########                         Heavy_Atoms:                  27
##########                    Molecular_Weight:             375.295
##########                DOCK_Rotatable_Bonds:                   4
##########                       Formal_Charge:                0.04
##########                     HBond_Acceptors:                  11
##########                        HBond_Donors:                   0
##########                         Heavy_Atoms:                  27
##########                          Grid_Score:          -32.084915
##########                     Grid_vdw_energy:          -31.139563
##########                      Grid_es_energy:           -0.945352
##########           Internal_energy_repulsive:           14.379774

@<TRIPOS>MOLECULE
ZINC000919225759
 40 41 1 0 0
SMALL
USER_CHARGES


@<TRIPOS>ATOM
      1 C1         -0.9676    3.9307   51.0526 C.3     1  ZINC000919225759   -0.1500
      2 C2         -2.3903    3.4338   51.0710 C.ar    1  ZINC000919225759    0.0900
      3 C3         -3.1584    3.5539   52.2306 C.ar    1  ZINC000919225759   -0.1200
      4 C4         -2.5801    4.1681   53.4433 C.2     1  ZINC000919225759    0.5200
      5 O5         -2.6773    5.3654   53.6232 O.2     1  ZINC000919225759   -0.4700
      6 O6         -1.9448    3.4001   54.3497 O.3     1  ZINC000919225759   -0.3400
      7 C7         -1.8430    3.9226   55.7006 C.3     1  ZINC000919225759    0.1400
      8 H8         -1.6417    4.9932   55.6620 H       1  ZINC000919225759    0.1100
      9 C9         -3.1583    3.6774   56.4427 C.3     1  ZINC000919225759   -0.1700
     10 C10        -0.7199    3.2262   56.4252 C.ar    1  ZINC000919225759   -0.1000
     11 C11         0.4001    2.8126   55.7289 C.ar    1  ZINC000919225759   -0.0400
     12 C12         1.4303    2.1737   56.3936 C.ar    1  ZINC000919225759   -0.1100
     13 C13         1.3406    1.9492   57.7544 C.ar    1  ZINC000919225759   -0.0500
     14 C14         0.2207    2.3639   58.4510 C.ar    1  ZINC000919225759   -0.0400
     15 N15         0.1243    2.1230   59.9083 N.pl3   1  ZINC000919225759    0.0300
     16 O16         1.0316    1.5595   60.4937 O.2     1  ZINC000919225759   -0.1500
     17 O17        -0.8623    2.4883   60.5220 O.2     1  ZINC000919225759   -0.1500
     18 C18        -0.8075    3.0064   57.7873 C.ar    1  ZINC000919225759   -0.0400
     19 C19        -4.4760    3.0913   52.2388 C.ar    1  ZINC000919225759    0.0500
     20 C20        -5.0097    2.5193   51.1029 C.ar    1  ZINC000919225759   -0.0600
     21 N21        -6.4062    2.0288   51.1095 N.pl3   1  ZINC000919225759    0.0300
     22 O22        -7.0826    2.1304   52.1173 O.2     1  ZINC000919225759   -0.1300
     23 O23        -6.8790    1.5233   50.1072 O.2     1  ZINC000919225759   -0.1300
     24 C24        -4.2427    2.4033   49.9569 C.ar    1  ZINC000919225759    0.0400
     25 C25        -2.9384    2.8644   49.9402 C.ar    1  ZINC000919225759   -0.0500
     26 N26        -2.1257    2.7366   48.7097 N.pl3   1  ZINC000919225759    0.0200
     27 O27        -2.2300    1.7442   48.0113 O.2     1  ZINC000919225759   -0.1300
     28 O28        -1.3527    3.6239   48.3955 O.2     1  ZINC000919225759   -0.1200
     29 H29        -0.9596    5.0022   50.8529 H       1  ZINC000919225759    0.1200
     30 H30        -0.5028    3.7378   52.0195 H       1  ZINC000919225759    0.1200
     31 H31        -0.4115    3.4115   50.2721 H       1  ZINC000919225759    0.0900
     32 H32        -3.3595    2.6069   56.4814 H       1  ZINC000919225759    0.0700
     33 H33        -3.0818    4.0696   57.4569 H       1  ZINC000919225759    0.0900
     34 H34        -3.9705    4.1810   55.9187 H       1  ZINC000919225759    0.0700
     35 H35         0.4701    2.9880   54.6656 H       1  ZINC000919225759    0.1500
     36 H36         2.3052    1.8499   55.8494 H       1  ZINC000919225759    0.1500
     37 H37         2.1452    1.4496   58.2735 H       1  ZINC000919225759    0.1600
     38 H38        -1.6823    3.3303   58.3315 H       1  ZINC000919225759    0.1600
     39 H39        -5.0755    3.1807   53.1326 H       1  ZINC000919225759    0.1900
     40 H40        -4.6655    1.9543   49.0702 H       1  ZINC000919225759    0.1900
@<TRIPOS>BOND
     1     1     2    1
     2     1    29    1
     3     1    30    1
     4     1    31    1
     5     2    25   ar
     6     2     3   ar
     7     3     4    1
     8     3    19   ar
     9     4     5    2
    10     4     6    1
    11     6     7    1
    12     7     8    1
    13     7     9    1
    14     7    10    1
    15     9    32    1
    16     9    33    1
    17     9    34    1
    18    10    18   ar
    19    10    11   ar
    20    11    12   ar
    21    11    35    1
    22    12    13   ar
    23    12    36    1
    24    13    14   ar
    25    13    37    1
    26    14    15    1
    27    14    18   ar
    28    15    16    2
    29    15    17    2
    30    18    38    1
    31    19    20   ar
    32    19    39    1
    33    20    21    1
    34    20    24   ar
    35    21    22    2
    36    21    23    2
    37    24    25   ar
    38    24    40    1
    39    25    26    1
    40    26    27    2
    41    26    28    2
@<TRIPOS>SUBSTRUCTURE
     1 ZINC000919225759        1 TEMP              0 ****  ****    0 ROOT


##########                                Name:    ZINC000007167963
##########                DOCK_Rotatable_Bonds:                   8
##########                         Heavy_Atoms:                  25
##########                    Molecular_Weight:             378.433
##########                DOCK_Rotatable_Bonds:                   8
##########                       Formal_Charge:        -1.01328e-06
##########                     HBond_Acceptors:                  10
##########                        HBond_Donors:                   3
##########                         Heavy_Atoms:                  25
##########                          Grid_Score:          -32.036167
##########                     Grid_vdw_energy:          -30.686668
##########                      Grid_es_energy:           -1.349499
##########           Internal_energy_repulsive:            6.247409

@<TRIPOS>MOLECULE
ZINC000007167963
 39 41 1 0 0
SMALL
USER_CHARGES


@<TRIPOS>ATOM
      1 C1         -3.2872    4.3619   52.1374 C.3     1  ZINC000007167963   -0.0800
      2 C2         -4.2910    3.2954   51.7819 C.2     1  ZINC000007167963    0.0900
      3 C3         -4.2782    2.5348   50.6534 C.2     1  ZINC000007167963   -0.1500
      4 C4         -3.2944    2.5889   49.5517 C.2     1  ZINC000007167963    0.2600
      5 N5         -3.2643    1.8084   48.4991 N.2     1  ZINC000007167963   -0.2700
      6 N6         -2.2732    2.1401   47.7488 N.2     1  ZINC000007167963   -0.2800
      7 C7         -1.6307    3.1459   48.2926 C.2     1  ZINC000007167963    0.1200
      8 S8         -0.2059    3.9495   47.6379 S.3     1  ZINC000007167963    0.1500
      9 C9          0.2389    2.7824   46.3278 C.3     1  ZINC000007167963   -0.1200
     10 H10        -0.6596    2.4804   45.7897 H       1  ZINC000007167963    0.1400
     11 C11         1.2136    3.4524   45.3573 C.3     1  ZINC000007167963   -0.1500
     12 C12         0.8916    1.5682   46.9370 C.2     1  ZINC000007167963    0.5300
     13 O13         0.5567    0.4578   46.5826 O.2     1  ZINC000007167963   -0.4900
     14 N14         1.8473    1.7165   47.8756 N.am    1  ZINC000007167963   -0.6100
     15 C15         2.4489    0.5994   48.4349 C.2     1  ZINC000007167963    0.0800
     16 C16         3.6010    0.0198   47.9703 C.2     1  ZINC000007167963   -0.2400
     17 C17         4.3482    0.5161   46.8104 C.2     1  ZINC000007167963    0.5900
     18 N18         5.5863    1.0233   46.9730 N.am    1  ZINC000007167963   -0.8400
     19 O19         3.8504    0.4699   45.7007 O.2     1  ZINC000007167963   -0.5600
     20 C20         4.0015   -1.1329   48.7468 C.2     1  ZINC000007167963   -0.0900
     21 C21         3.1765   -1.3979   49.7498 C.2     1  ZINC000007167963   -0.2800
     22 S22         1.8615   -0.2373   49.7986 S.3     1  ZINC000007167963    0.3000
     23 O23        -2.2637    3.4557   49.4412 O.3     1  ZINC000007167963   -0.2000
     24 C24        -5.4447    1.6485   50.7580 C.2     1  ZINC000007167963   -0.1800
     25 C25        -6.0399    1.9552   51.9222 C.2     1  ZINC000007167963   -0.0300
     26 O26        -5.3447    2.9308   52.5262 O.3     1  ZINC000007167963   -0.1700
     27 H27        -3.5477    4.7992   53.1012 H       1  ZINC000007167963    0.0800
     28 H28        -2.2926    3.9197   52.1961 H       1  ZINC000007167963    0.1000
     29 H29        -3.2952    5.1380   51.3722 H       1  ZINC000007167963    0.1000
     30 H30         0.7416    4.3306   44.9167 H       1  ZINC000007167963    0.0900
     31 H31         2.1121    3.7544   45.8954 H       1  ZINC000007167963    0.0800
     32 H32         1.4815    2.7496   44.5684 H       1  ZINC000007167963    0.0800
     33 H33         2.1142    2.6047   48.1599 H       1  ZINC000007167963    0.4400
     34 H34         6.0800    1.3526   46.2057 H       1  ZINC000007167963    0.4000
     35 H35         5.9835    1.0590   47.8571 H       1  ZINC000007167963    0.4100
     36 H36         4.8827   -1.7185   48.5308 H       1  ZINC000007167963    0.1500
     37 H37         3.2994   -2.2151   50.4452 H       1  ZINC000007167963    0.1700
     38 H38        -5.7600    0.9024   50.0436 H       1  ZINC000007167963    0.1600
     39 H39        -6.9325    1.4883   52.3116 H       1  ZINC000007167963    0.2200
@<TRIPOS>BOND
     1     1     2    1
     2     1    27    1
     3     1    28    1
     4     1    29    1
     5     2    26    1
     6     2     3    2
     7     3     4    1
     8     3    24    1
     9     4    23    1
    10     4     5    2
    11     5     6    1
    12     6     7    2
    13     7     8    1
    14     7    23    1
    15     8     9    1
    16     9    10    1
    17     9    11    1
    18     9    12    1
    19    11    30    1
    20    11    31    1
    21    11    32    1
    22    12    13    2
    23    12    14   am
    24    14    15    1
    25    14    33    1
    26    15    22    1
    27    15    16    2
    28    16    17    1
    29    16    20    1
    30    17    18   am
    31    17    19    2
    32    18    34    1
    33    18    35    1
    34    20    21    2
    35    20    36    1
    36    21    22    1
    37    21    37    1
    38    24    25    2
    39    24    38    1
    40    25    26    1
    41    25    39    1
@<TRIPOS>SUBSTRUCTURE
     1 ZINC000007167963        1 TEMP              0 ****  ****    0 ROOT


##########                                Name:    ZINC001119787528
##########                DOCK_Rotatable_Bonds:                   6
##########                         Heavy_Atoms:                  27
##########                    Molecular_Weight:             362.434
##########                DOCK_Rotatable_Bonds:                   6
##########                       Formal_Charge:          -0.0199998
##########                     HBond_Acceptors:                   7
##########                        HBond_Donors:                   1
##########                         Heavy_Atoms:                  27
##########                          Grid_Score:          -32.023499
##########                     Grid_vdw_energy:          -31.541456
##########                      Grid_es_energy:           -0.482040
##########           Internal_energy_repulsive:           11.469104

@<TRIPOS>MOLECULE
ZINC001119787528
 49 52 1 0 0
SMALL
USER_CHARGES


@<TRIPOS>ATOM
      1 C1          2.5570   -2.1131   49.9737 C.3     1  ZINC001119787528   -0.1700
      2 C2          3.4515   -0.9801   49.4666 C.3     1  ZINC001119787528    0.1000
      3 N3          2.6741   -0.0985   48.5921 N.pl3   1  ZINC001119787528   -0.4500
      4 C4          2.6485   -0.1261   47.2397 C.2     1  ZINC001119787528    0.1800
      5 N5          1.8423    0.8118   46.8149 N.2     1  ZINC001119787528   -0.4800
      6 C6          1.3342    1.4596   47.8655 C.2     1  ZINC001119787528   -0.0200
      7 C7          1.8362    0.9002   48.9873 C.2     1  ZINC001119787528   -0.0100
      8 C8          1.5035    1.3368   50.3898 C.3     1  ZINC001119787528   -0.0600
      9 C9          0.8958    2.7446   50.3384 C.3     1  ZINC001119787528    0.1400
     10 N10        -0.0965    2.8011   49.2547 N.am    1  ZINC001119787528   -0.6200
     11 C11        -1.4002    3.0124   49.5229 C.2     1  ZINC001119787528    0.7200
     12 O12        -2.2081    3.0561   48.6156 O.2     1  ZINC001119787528   -0.5600
     13 N13        -1.8084    3.1748   50.7971 N.am    1  ZINC001119787528   -0.6600
     14 C14        -3.1531    3.3927   51.0737 C.ar    1  ZINC001119787528    0.4200
     15 C15        -3.5909    4.6379   51.5257 C.ar    1  ZINC001119787528   -0.2500
     16 C16        -4.9378    4.8047   51.7864 C.ar    1  ZINC001119787528    0.1600
     17 N17        -5.7631    3.7851   51.6002 N.ar    1  ZINC001119787528   -0.5300
     18 C18        -5.3178    2.6209   51.1720 C.ar    1  ZINC001119787528    0.3500
     19 C19        -6.2946    1.4904   50.9747 C.3     1  ZINC001119787528   -0.0100
     20 C20        -7.5387    1.7548   51.7832 C.ar    1  ZINC001119787528   -0.0800
     21 C21        -8.4418    2.7154   51.3676 C.ar    1  ZINC001119787528   -0.1000
     22 C22        -9.5829    2.9580   52.1092 C.ar    1  ZINC001119787528   -0.1200
     23 C23        -9.8212    2.2398   53.2660 C.ar    1  ZINC001119787528   -0.1200
     24 C24        -8.9185    1.2786   53.6810 C.ar    1  ZINC001119787528   -0.1200
     25 C25        -7.7795    1.0330   52.9372 C.ar    1  ZINC001119787528   -0.1000
     26 N26        -4.0432    2.4196   50.9066 N.ar    1  ZINC001119787528   -0.5500
     27 C27         0.3655    2.6184   47.8678 C.3     1  ZINC001119787528    0.2000
     28 H28         3.1353   -2.7692   50.6243 H       1  ZINC001119787528    0.0800
     29 H29         1.7202   -1.6933   50.5320 H       1  ZINC001119787528    0.0600
     30 H30         2.1782   -2.6841   49.1260 H       1  ZINC001119787528    0.0600
     31 H31         3.8303   -0.4092   50.3143 H       1  ZINC001119787528    0.0900
     32 H32         4.2882   -1.4001   48.9083 H       1  ZINC001119787528    0.1000
     33 H33         3.2029   -0.8099   46.6140 H       1  ZINC001119787528    0.2100
     34 H34         0.7845    0.6442   50.8272 H       1  ZINC001119787528    0.0800
     35 H35         2.4116    1.3527   50.9925 H       1  ZINC001119787528    0.0900
     36 H36         0.4105    2.9669   51.2888 H       1  ZINC001119787528    0.1100
     37 H37         1.6829    3.4747   50.1503 H       1  ZINC001119787528    0.0800
     38 H38        -1.1638    3.1399   51.5210 H       1  ZINC001119787528    0.4200
     39 H39        -2.8945    5.4509   51.6686 H       1  ZINC001119787528    0.1800
     40 H40        -5.3129    5.7546   52.1379 H       1  ZINC001119787528    0.1700
     41 H41        -6.5563    1.4164   49.9192 H       1  ZINC001119787528    0.1000
     42 H42        -5.8399    0.5558   51.3028 H       1  ZINC001119787528    0.1000
     43 H43        -8.2556    3.2766   50.4639 H       1  ZINC001119787528    0.1300
     44 H44       -10.2881    3.7090   51.7850 H       1  ZINC001119787528    0.1200
     45 H45       -10.7123    2.4298   53.8457 H       1  ZINC001119787528    0.1200
     46 H46        -9.1045    0.7177   54.5850 H       1  ZINC001119787528    0.1200
     47 H47        -7.0744    0.2820   53.2615 H       1  ZINC001119787528    0.1200
     48 H48         0.8729    3.5198   47.5241 H       1  ZINC001119787528    0.0900
     49 H49        -0.4832    2.3995   47.2199 H       1  ZINC001119787528    0.0900
@<TRIPOS>BOND
     1     1     2    1
     2     1    28    1
     3     1    29    1
     4     1    30    1
     5     2     3    1
     6     2    31    1
     7     2    32    1
     8     3     7    1
     9     3     4    1
    10     4     5    2
    11     4    33    1
    12     5     6    1
    13     6    27    1
    14     6     7    2
    15     7     8    1
    16     8     9    1
    17     8    34    1
    18     8    35    1
    19     9    10    1
    20     9    36    1
    21     9    37    1
    22    10    11   am
    23    10    27    1
    24    11    12    2
    25    11    13   am
    26    13    14    1
    27    13    38    1
    28    14    26   ar
    29    14    15   ar
    30    15    16   ar
    31    15    39    1
    32    16    17   ar
    33    16    40    1
    34    17    18   ar
    35    18    19    1
    36    18    26   ar
    37    19    20    1
    38    19    41    1
    39    19    42    1
    40    20    25   ar
    41    20    21   ar
    42    21    22   ar
    43    21    43    1
    44    22    23   ar
    45    22    44    1
    46    23    24   ar
    47    23    45    1
    48    24    25   ar
    49    24    46    1
    50    25    47    1
    51    27    48    1
    52    27    49    1
@<TRIPOS>SUBSTRUCTURE
     1 ZINC001119787528        1 TEMP              0 ****  ****    0 ROOT


##########                                Name:     oleObject42.pdb
##########                DOCK_Rotatable_Bonds:                   9
##########                         Heavy_Atoms:                  36
##########                    Molecular_Weight:             527.493
##########                DOCK_Rotatable_Bonds:                   9
##########                       Formal_Charge:         9.99384e-05
##########                     HBond_Acceptors:                   8
##########                        HBond_Donors:                   0
##########                         Heavy_Atoms:                  36
##########                          Grid_Score:          -31.991535
##########                     Grid_vdw_energy:          -31.050337
##########                      Grid_es_energy:           -0.941198
##########           Internal_energy_repulsive:           23.474712

@<TRIPOS>MOLECULE
oleObject42.pdb
 68 71 1 0 0
SMALL
NO_CHARGES


@<TRIPOS>ATOM
      1 C           2.8891   -0.6618   59.9956 C.ar    1  UNL        -0.0435
      2 C           1.6823   -0.5813   60.7055 C.ar    1  UNL        -0.0559
      3 C           1.0739    0.6753   60.8850 C.ar    1  UNL        -0.0272
      4 C           1.7111    1.8173   60.3372 C.ar    1  UNL         0.0699
      5 N           2.8760    1.7252   59.6541 N.ar    1  UNL        -0.2586
      6 C           3.4497    0.5191   59.4873 C.ar    1  UNL         0.0272
      7 C           1.1119    3.2261   60.4867 C.3     1  UNL         0.1101
      8 C           1.2276    3.7881   61.9170 C.ar    1  UNL         0.0699
      9 C           0.4535    4.8989   62.3379 C.ar    1  UNL        -0.0272
     10 C           0.6158    5.3688   63.6548 C.ar    1  UNL        -0.0559
     11 C           1.5323    4.7285   64.5012 C.ar    1  UNL        -0.0435
     12 C           2.2596    3.6383   64.0018 C.ar    1  UNL         0.0272
     13 N           2.1124    3.1827   62.7439 N.ar    1  UNL        -0.2586
     14 C          -0.5416    5.5932   61.4144 C.3     1  UNL        -0.0379
     15 N           1.5665    4.1619   59.4210 N.am    1  UNL        -0.2902
     16 C           1.1058    4.0954   58.1054 C.2     1  UNL         0.2180
     17 O           1.2968    5.0254   57.3391 O.2     1  UNL        -0.2772
     18 C           0.0767    2.9872   57.7732 C.3     1  UNL         0.0385
     19 C           0.4100    2.2931   56.4306 C.3     1  UNL        -0.0289
     20 C           0.0611    3.1761   55.2133 C.3     1  UNL        -0.0010
     21 N          -1.3535    3.6062   55.2445 N.4     1  UNL        -0.3010
     22 C          -1.7382    4.3157   56.4847 C.3     1  UNL        -0.0010
     23 C          -1.3851    3.5064   57.7558 C.3     1  UNL        -0.0289
     24 C          -1.8072    4.2731   54.0039 C.3     1  UNL         0.0222
     25 C          -2.1509    3.2983   52.8554 C.3     1  UNL         0.0661
     26 O          -2.4974    4.0814   51.7023 O.3     1  UNL        -0.3432
     27 C          -2.1239    3.6350   50.4586 C.ar    1  UNL         0.0937
     28 C          -0.8261    3.9105   49.9958 C.ar    1  UNL        -0.0288
     29 C          -0.4232    3.4658   48.7257 C.ar    1  UNL        -0.0408
     30 C          -1.3208    2.7481   47.9177 C.ar    1  UNL         0.0422
     31 C          -2.6208    2.4756   48.3754 C.ar    1  UNL        -0.0221
     32 C          -3.0258    2.9192   49.6457 C.ar    1  UNL         0.0723
     33 CL         -4.6556    2.5705   50.1917 Cl      1  UNL        -0.0814
     34 CL         -0.8189    2.1941   46.3346 Cl      1  UNL        -0.0843
     35 C           2.6672    5.0798   59.7770 C.3     1  UNL         0.0038
     36 C          -0.2401    0.7654   61.6534 C.3     1  UNL        -0.0379
     37 H           3.3793   -1.6185   59.8413 H       1  UNL         0.0639
     38 H           1.2275   -1.4822   61.1078 H       1  UNL         0.0627
     39 H           4.3851    0.5003   58.9292 H       1  UNL         0.0840
     40 H           0.0393    3.0970   60.3202 H       1  UNL         0.0643
     41 H           0.0408    6.2159   64.0182 H       1  UNL         0.0627
     42 H           1.6766    5.0692   65.5222 H       1  UNL         0.0639
     43 H           2.9815    3.1132   64.6259 H       1  UNL         0.0840
     44 H          -0.0327    6.0502   60.5568 H       1  UNL         0.0280
     45 H          -1.0858    6.3914   61.9347 H       1  UNL         0.0280
     46 H          -1.2889    4.8871   61.0321 H       1  UNL         0.0280
     47 H           0.1175    2.2288   58.5615 H       1  UNL         0.0402
     48 H          -0.1608    1.3580   56.3610 H       1  UNL         0.0288
     49 H           1.4706    2.0173   56.3949 H       1  UNL         0.0288
     50 H           0.2568    2.6050   54.2967 H       1  UNL         0.0431
     51 H           0.7220    4.0523   55.2086 H       1  UNL         0.0431
     52 H          -2.8187    4.5083   56.4817 H       1  UNL         0.0431
     53 H          -1.2349    5.2886   56.5299 H       1  UNL         0.0431
     54 H          -2.0615    2.6436   57.8106 H       1  UNL         0.0288
     55 H          -1.5795    4.1118   58.6505 H       1  UNL         0.0288
     56 H          -1.0264    4.9613   53.6558 H       1  UNL         0.0455
     57 H          -2.6959    4.8786   54.2239 H       1  UNL         0.0455
     58 H          -2.9958    2.6605   53.1425 H       1  UNL         0.0586
     59 H          -1.2890    2.6586   52.6292 H       1  UNL         0.0586
     60 H          -0.1348    4.4672   50.6219 H       1  UNL         0.0652
     61 H           0.5810    3.6781   48.3696 H       1  UNL         0.0639
     62 H          -3.3132    1.9228   47.7469 H       1  UNL         0.0655
     63 H           2.6188    5.3465   60.8401 H       1  UNL         0.0433
     64 H           2.5925    6.0016   59.1864 H       1  UNL         0.0433
     65 H           3.6310    4.5984   59.5693 H       1  UNL         0.0433
     66 H          -0.5951   -0.2254   61.9632 H       1  UNL         0.0280
     67 H          -1.0299    1.2148   61.0394 H       1  UNL         0.0280
     68 H          -0.1264    1.3695   62.5617 H       1  UNL         0.0280
@<TRIPOS>BOND
     1     1     2   ar
     2     1     6   ar
     3     1    37    1
     4     2     3   ar
     5     2    38    1
     6     3     4   ar
     7     3    36    1
     8     4     5   ar
     9     4     7    1
    10     5     6   ar
    11     6    39    1
    12     7     8    1
    13     7    15    1
    14     7    40    1
    15     8     9   ar
    16     8    13   ar
    17     9    10   ar
    18     9    14    1
    19    10    11   ar
    20    10    41    1
    21    11    12   ar
    22    11    42    1
    23    12    13   ar
    24    12    43    1
    25    14    44    1
    26    14    45    1
    27    14    46    1
    28    15    16   am
    29    15    35    1
    30    16    17    2
    31    16    18    1
    32    18    19    1
    33    18    23    1
    34    18    47    1
    35    19    20    1
    36    19    48    1
    37    19    49    1
    38    20    21    1
    39    20    50    1
    40    20    51    1
    41    21    22    1
    42    21    24    1
    43    22    23    1
    44    22    52    1
    45    22    53    1
    46    23    54    1
    47    23    55    1
    48    24    25    1
    49    24    56    1
    50    24    57    1
    51    25    26    1
    52    25    58    1
    53    25    59    1
    54    26    27    1
    55    27    28   ar
    56    27    32   ar
    57    28    29   ar
    58    28    60    1
    59    29    30   ar
    60    29    61    1
    61    30    31   ar
    62    30    34    1
    63    31    32   ar
    64    31    62    1
    65    32    33    1
    66    35    63    1
    67    35    64    1
    68    35    65    1
    69    36    66    1
    70    36    67    1
    71    36    68    1
@<TRIPOS>SUBSTRUCTURE
     1 UNL         1 TEMP              0 ****  ****    0 ROOT


##########                                Name:    ZINC001000186632
##########                DOCK_Rotatable_Bonds:                   7
##########                         Heavy_Atoms:                  23
##########                    Molecular_Weight:             342.379
##########                DOCK_Rotatable_Bonds:                   7
##########                       Formal_Charge:          -0.0100001
##########                     HBond_Acceptors:                  11
##########                        HBond_Donors:                   2
##########                         Heavy_Atoms:                  23
##########                          Grid_Score:          -31.978951
##########                     Grid_vdw_energy:          -27.657988
##########                      Grid_es_energy:           -4.320963
##########           Internal_energy_repulsive:            4.372556

@<TRIPOS>MOLECULE
ZINC001000186632
 41 43 1 0 0
SMALL
USER_CHARGES


@<TRIPOS>ATOM
      1 O1         -1.5992    5.5555   53.8782 O.2     1  ZINC001000186632   -0.5200
      2 C2         -1.1612    4.4659   53.5753 C.2     1  ZINC001000186632    0.5300
      3 C3          0.0005    3.8824   54.3375 C.3     1  ZINC001000186632   -0.0500
      4 C4         -0.5102    3.1685   55.5626 C.2     1  ZINC001000186632    0.2400
      5 N5         -0.0238    2.0588   56.0531 N.2     1  ZINC001000186632   -0.3000
      6 N6         -0.7895    1.7470   57.1884 N.pl3   1  ZINC001000186632   -0.4800
      7 C7         -1.7093    2.7205   57.3035 C.2     1  ZINC001000186632    0.2700
      8 N8         -1.5269    3.5693   56.3247 N.2     1  ZINC001000186632   -0.5400
      9 N9         -1.7169    3.7744   52.5607 N.am    1  ZINC001000186632   -0.7100
     10 C10        -2.8462    4.3417   51.8197 C.3     1  ZINC001000186632    0.1100
     11 C11        -2.4671    4.8784   50.4275 C.3     1  ZINC001000186632    0.1000
     12 N12        -2.7894    3.5271   49.9294 N.am    1  ZINC001000186632   -0.6500
     13 C13        -2.4130    2.8006   48.8583 C.2     1  ZINC001000186632    0.5100
     14 O14        -2.8522    1.6811   48.7002 O.2     1  ZINC001000186632   -0.5100
     15 C15        -1.4464    3.3791   47.8574 C.3     1  ZINC001000186632    0.1500
     16 N16        -0.1583    2.6899   47.9676 N.am    1  ZINC001000186632   -0.9800
     17 C17         0.7512    2.7239   49.1228 C.3     1  ZINC001000186632    0.0800
     18 C18         1.5601    1.4149   49.1987 C.3     1  ZINC001000186632   -0.1300
     19 C19         2.0280    1.1669   47.7355 C.3     1  ZINC001000186632   -0.6000
     20 S20         0.5441    1.7153   46.8076 S.o2    1  ZINC001000186632    2.5700
     21 O21        -0.3678    0.6428   46.6140 O.2     1  ZINC001000186632   -0.9400
     22 O22         0.8945    2.5996   45.7519 O.2     1  ZINC001000186632   -0.9600
     23 C23        -3.6893    3.2909   51.0748 C.3     1  ZINC001000186632    0.0900
     24 H24         0.5344    3.1760   53.7016 H       1  ZINC001000186632    0.1300
     25 H25         0.6764    4.6827   54.6387 H       1  ZINC001000186632    0.1200
     26 H26        -0.6772    0.9812   57.7730 H       1  ZINC001000186632    0.4400
     27 H27        -2.4649    2.7915   58.0721 H       1  ZINC001000186632    0.2200
     28 H28        -1.3691    2.9011   52.3211 H       1  ZINC001000186632    0.4100
     29 H29        -3.4378    5.0379   52.4141 H       1  ZINC001000186632    0.1200
     30 H30        -3.1378    5.6543   50.0582 H       1  ZINC001000186632    0.1000
     31 H31        -1.4143    5.1429   50.3303 H       1  ZINC001000186632    0.0900
     32 H32        -1.8437    3.2478   46.8509 H       1  ZINC001000186632    0.1100
     33 H33        -1.3083    4.4416   48.0578 H       1  ZINC001000186632    0.1100
     34 H34         1.4356    3.5659   49.0191 H       1  ZINC001000186632    0.0800
     35 H35         0.1698    2.8428   50.0370 H       1  ZINC001000186632    0.0900
     36 H36         2.4193    1.5355   49.8584 H       1  ZINC001000186632    0.1100
     37 H37         0.9279    0.5954   49.5407 H       1  ZINC001000186632    0.1000
     38 H38         2.8971    1.7778   47.4914 H       1  ZINC001000186632    0.1400
     39 H39         2.2304    0.1102   47.5608 H       1  ZINC001000186632    0.1400
     40 H40        -3.6122    2.2879   51.4945 H       1  ZINC001000186632    0.0900
     41 H41        -4.7191    3.6003   50.8957 H       1  ZINC001000186632    0.1100
@<TRIPOS>BOND
     1     1     2    2
     2     2     3    1
     3     2     9   am
     4     3     4    1
     5     3    24    1
     6     3    25    1
     7     4     8    1
     8     4     5    2
     9     5     6    1
    10     6     7    1
    11     6    26    1
    12     7     8    2
    13     7    27    1
    14     9    10    1
    15     9    28    1
    16    10    23    1
    17    10    11    1
    18    10    29    1
    19    11    12    1
    20    11    30    1
    21    11    31    1
    22    12    13   am
    23    12    23    1
    24    13    14    2
    25    13    15    1
    26    15    16    1
    27    15    32    1
    28    15    33    1
    29    16    20   am
    30    16    17    1
    31    17    18    1
    32    17    34    1
    33    17    35    1
    34    18    19    1
    35    18    36    1
    36    18    37    1
    37    19    20    1
    38    19    38    1
    39    19    39    1
    40    20    21    2
    41    20    22    2
    42    23    40    1
    43    23    41    1
@<TRIPOS>SUBSTRUCTURE
     1 ZINC001000186632        1 TEMP              0 ****  ****    0 ROOT


##########                                Name:    ZINC001105793963
##########                DOCK_Rotatable_Bonds:                   9
##########                         Heavy_Atoms:                  24
##########                    Molecular_Weight:             337.422
##########                DOCK_Rotatable_Bonds:                   9
##########                       Formal_Charge:          -0.0100003
##########                     HBond_Acceptors:                   8
##########                        HBond_Donors:                   2
##########                         Heavy_Atoms:                  24
##########                          Grid_Score:          -31.970219
##########                     Grid_vdw_energy:          -32.350666
##########                      Grid_es_energy:            0.380447
##########           Internal_energy_repulsive:           14.126740

@<TRIPOS>MOLECULE
ZINC001105793963
 51 52 1 0 0
SMALL
USER_CHARGES


@<TRIPOS>ATOM
      1 C1         -7.5738    1.9617   52.6650 C.3     1  ZINC001105793963   -0.1500
      2 C2         -6.7780    1.1194   51.6658 C.3     1  ZINC001105793963   -0.0300
      3 C3         -5.6596    1.9482   51.0886 C.2     1  ZINC001105793963    0.1800
      4 N4         -5.0125    2.9156   51.6929 N.2     1  ZINC001105793963   -0.4800
      5 C5         -4.1110    3.3612   50.7997 C.2     1  ZINC001105793963    0.1700
      6 C6         -3.1181    4.4743   51.0141 C.3     1  ZINC001105793963    0.1500
      7 N7         -1.7537    3.9446   50.8874 N.3     1  ZINC001105793963   -0.6900
      8 C8         -1.2629    4.0785   49.5093 C.3     1  ZINC001105793963    0.0700
      9 C9         -0.8817    2.6995   48.9674 C.3     1  ZINC001105793963   -0.1000
     10 H10        -1.5747    1.9433   49.3366 H       1  ZINC001105793963    0.1000
     11 C11         0.5653    2.3448   49.3723 C.3     1  ZINC001105793963    0.1100
     12 N12         1.1165    1.6271   48.1994 N.am    1  ZINC001105793963   -0.6200
     13 C13         1.9225    0.5469   48.1949 C.2     1  ZINC001105793963    0.5300
     14 O14         2.2932    0.0712   47.1427 O.2     1  ZINC001105793963   -0.5300
     15 C15         2.3631   -0.0697   49.4975 C.3     1  ZINC001105793963    0.1300
     16 H16         1.6102    0.1202   50.2625 H       1  ZINC001105793963    0.1100
     17 C17         2.5352   -1.5790   49.3149 C.3     1  ZINC001105793963   -0.1600
     18 N18         3.6386    0.5208   49.9106 N.am    1  ZINC001105793963   -0.7200
     19 C19         3.6731    1.4107   50.9221 C.2     1  ZINC001105793963    0.5200
     20 C20         4.9849    2.0195   51.3458 C.3     1  ZINC001105793963   -0.1700
     21 O21         2.6484    1.7217   51.4914 O.2     1  ZINC001105793963   -0.5500
     22 C22         0.5806    2.3659   47.0324 C.3     1  ZINC001105793963    0.1000
     23 C23        -0.8744    2.7126   47.4247 C.3     1  ZINC001105793963   -0.1000
     24 H24        -1.1416    3.7019   47.0531 H       1  ZINC001105793963    0.0900
     25 C25        -1.8389    1.6602   46.8738 C.3     1  ZINC001105793963   -0.1500
     26 N26        -4.2532    2.6553   49.7180 N.2     1  ZINC001105793963   -0.3700
     27 O27        -5.1338    1.8341   49.8654 O.3     1  ZINC001105793963    0.0800
     28 H28        -6.9147    2.2919   53.4679 H       1  ZINC001105793963    0.0600
     29 H29        -7.9908    2.8309   52.1564 H       1  ZINC001105793963    0.0600
     30 H30        -8.3828    1.3622   53.0824 H       1  ZINC001105793963    0.0800
     31 H31        -6.3610    0.2501   52.1744 H       1  ZINC001105793963    0.1100
     32 H32        -7.4371    0.7891   50.8630 H       1  ZINC001105793963    0.1000
     33 H33        -3.2769    5.2518   50.2670 H       1  ZINC001105793963    0.1000
     34 H34        -3.2534    4.8950   52.0106 H       1  ZINC001105793963    0.0700
     35 H35        -1.1289    4.3951   51.5391 H       1  ZINC001105793963    0.3500
     36 H36        -2.0452    4.5106   48.8853 H       1  ZINC001105793963    0.0800
     37 H37        -0.3878    4.7284   49.4968 H       1  ZINC001105793963    0.0400
     38 H38         1.1384    3.2513   49.5669 H       1  ZINC001105793963    0.0700
     39 H39         0.5668    1.6975   50.2492 H       1  ZINC001105793963    0.0900
     40 H40         2.8540   -2.0251   50.2570 H       1  ZINC001105793963    0.0800
     41 H41         1.5862   -2.0183   49.0075 H       1  ZINC001105793963    0.0800
     42 H42         3.2882   -1.7689   48.5499 H       1  ZINC001105793963    0.0600
     43 H43         4.4584    0.2711   49.4560 H       1  ZINC001105793963    0.4100
     44 H44         5.7874    1.6224   50.7242 H       1  ZINC001105793963    0.0800
     45 H45         4.9373    3.1022   51.2296 H       1  ZINC001105793963    0.1000
     46 H46         5.1789    1.7742   52.3899 H       1  ZINC001105793963    0.1000
     47 H47         1.1561    3.2757   46.8616 H       1  ZINC001105793963    0.0800
     48 H48         0.5936    1.7345   46.1441 H       1  ZINC001105793963    0.0900
     49 H49        -1.5674    0.6792   47.2636 H       1  ZINC001105793963    0.0600
     50 H50        -2.8562    1.9041   47.1800 H       1  ZINC001105793963    0.0600
     51 H51        -1.7801    1.6478   45.7855 H       1  ZINC001105793963    0.0600
@<TRIPOS>BOND
     1     1     2    1
     2     1    28    1
     3     1    29    1
     4     1    30    1
     5     2     3    1
     6     2    31    1
     7     2    32    1
     8     3    27    1
     9     3     4    2
    10     4     5    1
    11     5     6    1
    12     5    26    2
    13     6     7    1
    14     6    33    1
    15     6    34    1
    16     7     8    1
    17     7    35    1
    18     8     9    1
    19     8    36    1
    20     8    37    1
    21     9    10    1
    22     9    23    1
    23     9    11    1
    24    11    12    1
    25    11    38    1
    26    11    39    1
    27    12    13   am
    28    12    22    1
    29    13    14    2
    30    13    15    1
    31    15    16    1
    32    15    17    1
    33    15    18    1
    34    17    40    1
    35    17    41    1
    36    17    42    1
    37    18    19   am
    38    18    43    1
    39    19    20    1
    40    19    21    2
    41    20    44    1
    42    20    45    1
    43    20    46    1
    44    22    23    1
    45    22    47    1
    46    22    48    1
    47    23    24    1
    48    23    25    1
    49    25    49    1
    50    25    50    1
    51    25    51    1
    52    26    27    1
@<TRIPOS>SUBSTRUCTURE
     1 ZINC001105793963        1 TEMP              0 ****  ****    0 ROOT


##########                                Name:    ZINC001004075025
##########                DOCK_Rotatable_Bonds:                   8
##########                         Heavy_Atoms:                  25
##########                    Molecular_Weight:              349.43
##########                DOCK_Rotatable_Bonds:                   8
##########                       Formal_Charge:         -0.00999999
##########                     HBond_Acceptors:                   7
##########                        HBond_Donors:                   1
##########                         Heavy_Atoms:                  25
##########                          Grid_Score:          -31.958509
##########                     Grid_vdw_energy:          -30.426208
##########                      Grid_es_energy:           -1.532300
##########           Internal_energy_repulsive:           12.545755

@<TRIPOS>MOLECULE
ZINC001004075025
 52 54 1 0 0
SMALL
USER_CHARGES


@<TRIPOS>ATOM
      1 C1          1.3441    4.7376   44.6021 C.3     1  ZINC001004075025   -0.1500
      2 C2          1.8899    3.3971   45.0981 C.3     1  ZINC001004075025   -0.1200
      3 C3          1.1270    2.9689   46.3533 C.3     1  ZINC001004075025    0.0800
      4 H4          1.3037    1.9136   46.5612 H       1  ZINC001004075025    0.0700
      5 C5          1.5558    3.8348   47.5647 C.3     1  ZINC001004075025   -0.1500
      6 C6          0.2996    3.7174   48.4703 C.3     1  ZINC001004075025   -0.1400
      7 C7         -0.8446    3.6481   47.4361 C.3     1  ZINC001004075025    0.0700
      8 H8         -1.2954    4.6332   47.3167 H       1  ZINC001004075025    0.1100
      9 C9         -1.8874    2.6607   47.8929 C.2     1  ZINC001004075025    0.5300
     10 O10        -2.0348    1.6149   47.2966 O.2     1  ZINC001004075025   -0.5200
     11 N11        -2.6563    2.9398   48.9640 N.am    1  ZINC001004075025   -0.6500
     12 C12        -2.7865    4.0567   49.9119 C.3     1  ZINC001004075025    0.1100
     13 C13        -3.3059    3.0478   50.9456 C.3     1  ZINC001004075025   -0.1400
     14 C14        -4.4704    3.5625   51.7942 C.3     1  ZINC001004075025    0.1300
     15 N15        -5.2900    2.4313   52.2358 N.am    1  ZINC001004075025   -0.7200
     16 C16        -6.4632    2.1704   51.6256 C.2     1  ZINC001004075025    0.6000
     17 O17        -6.8405    2.8731   50.7077 O.2     1  ZINC001004075025   -0.5300
     18 C18        -7.2887    1.0334   52.0711 C.2     1  ZINC001004075025   -0.2700
     19 C19        -8.4634    1.0550   52.7826 C.2     1  ZINC001004075025    0.0700
     20 C20        -9.1940    2.2743   53.2832 C.3     1  ZINC001004075025   -0.0300
     21 C21       -10.2847    2.6618   52.2827 C.3     1  ZINC001004075025   -0.1500
     22 C22        -9.8322    1.9656   54.6391 C.3     1  ZINC001004075025   -0.1500
     23 O23        -8.8290   -0.2188   52.9426 O.3     1  ZINC001004075025    0.1000
     24 N24        -8.0595   -1.0002   52.4395 N.2     1  ZINC001004075025   -0.3500
     25 C25        -7.0612   -0.4041   51.8578 C.2     1  ZINC001004075025    0.0200
     26 C26        -3.7388    2.2644   49.6954 C.3     1  ZINC001004075025    0.1100
     27 O27        -0.2786    3.2166   46.1914 O.3     1  ZINC001004075025   -0.3400
     28 H28         1.8875    5.0428   43.7079 H       1  ZINC001004075025    0.0600
     29 H29         0.2851    4.6338   44.3661 H       1  ZINC001004075025    0.0500
     30 H30         1.4709    5.4914   45.3792 H       1  ZINC001004075025    0.0600
     31 H31         1.7630    2.6433   44.3210 H       1  ZINC001004075025    0.0800
     32 H32         2.9489    3.5009   45.3342 H       1  ZINC001004075025    0.0700
     33 H33         2.4344    3.4161   48.0555 H       1  ZINC001004075025    0.0900
     34 H34         1.7299    4.8686   47.2665 H       1  ZINC001004075025    0.0900
     35 H35         0.3368    2.8075   49.0693 H       1  ZINC001004075025    0.0800
     36 H36         0.1956    4.5972   49.1053 H       1  ZINC001004075025    0.0900
     37 H37        -1.8324    4.5068   50.1861 H       1  ZINC001004075025    0.0900
     38 H38        -3.5311    4.7947   49.6135 H       1  ZINC001004075025    0.0900
     39 H39        -2.5238    2.5674   51.5334 H       1  ZINC001004075025    0.1100
     40 H40        -4.0803    4.0901   52.6646 H       1  ZINC001004075025    0.0800
     41 H41        -5.0802    4.2429   51.2000 H       1  ZINC001004075025    0.0800
     42 H42        -4.9884    1.8701   52.9673 H       1  ZINC001004075025    0.4000
     43 H43        -8.4909    3.1000   53.3922 H       1  ZINC001004075025    0.1300
     44 H44       -10.9878    1.8362   52.1737 H       1  ZINC001004075025    0.0600
     45 H45       -10.8131    3.5438   52.6447 H       1  ZINC001004075025    0.0700
     46 H46        -9.8301    2.8818   51.3167 H       1  ZINC001004075025    0.0600
     47 H47       -10.5353    1.1399   54.5302 H       1  ZINC001004075025    0.0600
     48 H48        -9.0551    1.6895   55.3520 H       1  ZINC001004075025    0.0600
     49 H49       -10.3606    2.8474   55.0012 H       1  ZINC001004075025    0.0700
     50 H50        -6.2368   -0.8664   51.3350 H       1  ZINC001004075025    0.2000
     51 H51        -4.7359    2.5273   49.3420 H       1  ZINC001004075025    0.0900
     52 H52        -3.5932    1.1880   49.7857 H       1  ZINC001004075025    0.0800
@<TRIPOS>BOND
     1     1     2    1
     2     1    28    1
     3     1    29    1
     4     1    30    1
     5     2     3    1
     6     2    31    1
     7     2    32    1
     8     3     4    1
     9     3    27    1
    10     3     5    1
    11     5     6    1
    12     5    33    1
    13     5    34    1
    14     6     7    1
    15     6    35    1
    16     6    36    1
    17     7     8    1
    18     7     9    1
    19     7    27    1
    20     9    10    2
    21     9    11   am
    22    11    26    1
    23    11    12    1
    24    12    13    1
    25    12    37    1
    26    12    38    1
    27    13    14    1
    28    13    26    1
    29    13    39    1
    30    14    15    1
    31    14    40    1
    32    14    41    1
    33    15    16   am
    34    15    42    1
    35    16    17    2
    36    16    18    1
    37    18    25    1
    38    18    19    2
    39    19    20    1
    40    19    23    1
    41    20    21    1
    42    20    22    1
    43    20    43    1
    44    21    44    1
    45    21    45    1
    46    21    46    1
    47    22    47    1
    48    22    48    1
    49    22    49    1
    50    23    24    1
    51    24    25    2
    52    25    50    1
    53    26    51    1
    54    26    52    1
@<TRIPOS>SUBSTRUCTURE
     1 ZINC001004075025        1 TEMP              0 ****  ****    0 ROOT


##########                                Name:    ZINC000450219577
##########                DOCK_Rotatable_Bonds:                   8
##########                         Heavy_Atoms:                  26
##########                    Molecular_Weight:             353.421
##########                DOCK_Rotatable_Bonds:                   8
##########                       Formal_Charge:          -0.0199997
##########                     HBond_Acceptors:                   6
##########                        HBond_Donors:                   1
##########                         Heavy_Atoms:                  26
##########                          Grid_Score:          -31.939566
##########                     Grid_vdw_energy:          -30.402092
##########                      Grid_es_energy:           -1.537475
##########           Internal_energy_repulsive:           38.353149

@<TRIPOS>MOLECULE
ZINC000450219577
 49 51 1 0 0
SMALL
USER_CHARGES


@<TRIPOS>ATOM
      1 C1          2.8138   -0.2992   47.8231 C.3     1  ZINC000450219577   -0.1800
      2 C2          2.9962   -0.5513   49.3212 C.3     1  ZINC000450219577    0.1200
      3 C3          2.4259   -1.9249   49.6803 C.3     1  ZINC000450219577   -0.1800
      4 C4          4.4860   -0.5113   49.6672 C.3     1  ZINC000450219577   -0.1400
      5 O5          2.2968    0.4749   50.0734 O.3     1  ZINC000450219577   -0.3400
      6 C6          2.6990    1.7428   49.8938 C.2     1  ZINC000450219577    0.4700
      7 O7          3.5486    1.9966   49.0730 O.2     1  ZINC000450219577   -0.5000
      8 C8          2.0909    2.8498   50.7158 C.3     1  ZINC000450219577    0.2000
      9 H9          2.2793    3.8078   50.2313 H       1  ZINC000450219577    0.1400
     10 N10         0.6461    2.6362   50.8299 N.am    1  ZINC000450219577   -0.7100
     11 C11        -0.1734    3.0247   49.8329 C.2     1  ZINC000450219577    0.5800
     12 O12         0.2862    3.5537   48.8397 O.2     1  ZINC000450219577   -0.5200
     13 C13        -1.6312    2.8075   49.9472 C.ar    1  ZINC000450219577   -0.2500
     14 C14        -2.3807    2.3646   48.8515 C.ar    1  ZINC000450219577    0.1900
     15 N15        -3.6814    2.1832   48.9983 N.ar    1  ZINC000450219577   -0.5100
     16 C16        -4.2724    2.4131   50.1544 C.ar    1  ZINC000450219577    0.3800
     17 C17        -5.7583    2.1911   50.2710 C.3     1  ZINC000450219577   -0.1100
     18 C18        -6.2760    1.5325   51.5514 C.3     1  ZINC000450219577   -0.1500
     19 C19        -6.5179    3.0232   51.3063 C.3     1  ZINC000450219577   -0.1500
     20 N20        -3.6044    2.8305   51.2120 N.ar    1  ZINC000450219577   -0.5200
     21 C21        -2.2998    3.0333   51.1558 C.ar    1  ZINC000450219577    0.2200
     22 C22         2.7084    2.8521   52.0905 C.ar    1  ZINC000450219577   -0.1100
     23 C23         1.9609    3.2496   53.1833 C.ar    1  ZINC000450219577   -0.1000
     24 C24         2.5273    3.2515   54.4443 C.ar    1  ZINC000450219577   -0.1200
     25 C25         3.8410    2.8557   54.6125 C.ar    1  ZINC000450219577   -0.1100
     26 C26         4.5882    2.4574   53.5199 C.ar    1  ZINC000450219577   -0.1200
     27 C27         4.0206    2.4513   52.2595 C.ar    1  ZINC000450219577   -0.0800
     28 H28         1.7524   -0.3277   47.5765 H       1  ZINC000450219577    0.0800
     29 H29         3.2201    0.6793   47.5673 H       1  ZINC000450219577    0.0600
     30 H30         3.3389   -1.0696   47.2584 H       1  ZINC000450219577    0.0700
     31 H31         2.9510   -2.6953   49.1156 H       1  ZINC000450219577    0.0700
     32 H32         2.5561   -2.1046   50.7475 H       1  ZINC000450219577    0.0600
     33 H33         1.3646   -1.9534   49.4337 H       1  ZINC000450219577    0.0800
     34 H34         4.8924    0.4673   49.4114 H       1  ZINC000450219577    0.0700
     35 H35         4.6161   -0.6909   50.7344 H       1  ZINC000450219577    0.0700
     36 H36         5.0111   -1.2817   49.1025 H       1  ZINC000450219577    0.0800
     37 H37         0.2791    2.2151   51.6229 H       1  ZINC000450219577    0.4100
     38 H38        -1.9039    2.1746   47.9013 H       1  ZINC000450219577    0.1700
     39 H39        -6.2730    1.9549   49.3397 H       1  ZINC000450219577    0.1300
     40 H40        -7.1313    0.8625   51.4624 H       1  ZINC000450219577    0.1000
     41 H41        -5.5417    1.2596   52.3093 H       1  ZINC000450219577    0.1100
     42 H42        -5.9427    3.7311   51.9031 H       1  ZINC000450219577    0.1000
     43 H43        -7.5322    3.3341   51.0562 H       1  ZINC000450219577    0.1100
     44 H44        -1.7596    3.3753   52.0261 H       1  ZINC000450219577    0.1800
     45 H45         0.9345    3.5587   53.0519 H       1  ZINC000450219577    0.1200
     46 H46         1.9435    3.5627   55.2979 H       1  ZINC000450219577    0.1200
     47 H47         4.2837    2.8580   55.5976 H       1  ZINC000450219577    0.1300
     48 H48         5.6147    2.1485   53.6513 H       1  ZINC000450219577    0.1300
     49 H49         4.6043    2.1402   51.4058 H       1  ZINC000450219577    0.1300
@<TRIPOS>BOND
     1     1     2    1
     2     1    28    1
     3     1    29    1
     4     1    30    1
     5     2     3    1
     6     2     4    1
     7     2     5    1
     8     3    31    1
     9     3    32    1
    10     3    33    1
    11     4    34    1
    12     4    35    1
    13     4    36    1
    14     5     6    1
    15     6     7    2
    16     6     8    1
    17     8     9    1
    18     8    10    1
    19     8    22    1
    20    10    11   am
    21    10    37    1
    22    11    12    2
    23    11    13    1
    24    13    21   ar
    25    13    14   ar
    26    14    15   ar
    27    14    38    1
    28    15    16   ar
    29    16    17    1
    30    16    20   ar
    31    17    19    1
    32    17    18    1
    33    17    39    1
    34    18    19    1
    35    18    40    1
    36    18    41    1
    37    19    42    1
    38    19    43    1
    39    20    21   ar
    40    21    44    1
    41    22    27   ar
    42    22    23   ar
    43    23    24   ar
    44    23    45    1
    45    24    25   ar
    46    24    46    1
    47    25    26   ar
    48    25    47    1
    49    26    27   ar
    50    26    48    1
    51    27    49    1
@<TRIPOS>SUBSTRUCTURE
     1 ZINC000450219577        1 TEMP              0 ****  ****    0 ROOT


##########                                Name:    ZINC000744839011
##########                DOCK_Rotatable_Bonds:                  10
##########                         Heavy_Atoms:                  24
##########                    Molecular_Weight:              378.83
##########                DOCK_Rotatable_Bonds:                  10
##########                       Formal_Charge:           0.0300002
##########                     HBond_Acceptors:                   9
##########                        HBond_Donors:                   0
##########                         Heavy_Atoms:                  24
##########                          Grid_Score:          -31.870958
##########                     Grid_vdw_energy:          -31.157604
##########                      Grid_es_energy:           -0.713355
##########           Internal_energy_repulsive:            5.764749

@<TRIPOS>MOLECULE
ZINC000744839011
 43 43 1 0 0
SMALL
USER_CHARGES


@<TRIPOS>ATOM
      1 C1          1.0613    0.7821   47.1383 C.3     1  ZINC000744839011    0.0400
      2 O2         -0.2690    1.0213   46.6078 O.3     1  ZINC000744839011   -0.3600
      3 C3         -0.7064    2.2958   46.6049 C.2     1  ZINC000744839011    0.5100
      4 O4         -0.5404    2.9929   45.6236 O.2     1  ZINC000744839011   -0.5000
      5 C5         -1.3864    2.8446   47.7928 C.ar    1  ZINC000744839011   -0.1600
      6 C6         -0.8074    3.8963   48.5082 C.ar    1  ZINC000744839011   -0.0100
      7 C7         -1.4456    4.4066   49.6168 C.ar    1  ZINC000744839011   -0.2100
      8 C8         -2.6639    3.8776   50.0249 C.ar    1  ZINC000744839011    0.1800
      9 O9         -3.2894    4.3836   51.1180 O.3     1  ZINC000744839011   -0.2900
     10 C10        -2.5844    4.3140   52.3590 C.3     1  ZINC000744839011    0.0500
     11 C11        -3.5871    4.2108   53.5101 C.3     1  ZINC000744839011    0.0600
     12 O12        -2.8706    4.1233   54.7699 O.3     1  ZINC000744839011   -0.3400
     13 C13        -3.6098    4.0703   55.8891 C.2     1  ZINC000744839011    0.5000
     14 O14        -4.8158    4.0653   55.8167 O.2     1  ZINC000744839011   -0.4900
     15 C15        -2.9355    4.0171   57.2357 C.3     1  ZINC000744839011   -0.6400
     16 S16        -1.2802    3.2975   57.0550 S.o2    1  ZINC000744839011    2.4400
     17 O17        -1.3941    2.0723   56.3443 O.2     1  ZINC000744839011   -0.9100
     18 O18        -0.4003    4.3021   56.5692 O.2     1  ZINC000744839011   -0.9100
     19 C19        -0.8419    2.9287   58.7762 C.3     1  ZINC000744839011   -0.5700
     20 C20         0.4907    2.1777   58.8134 C.3     1  ZINC000744839011   -0.1500
     21 C21        -0.7128    4.2358   59.5609 C.3     1  ZINC000744839011   -0.1500
     22 C22        -3.2446    2.8309   49.3157 C.ar    1  ZINC000744839011   -0.0800
     23 Cl23       -4.7673    2.1745   49.8301 Cl      1  ZINC000744839011   -0.0400
     24 C24        -2.6151    2.3181   48.2029 C.ar    1  ZINC000744839011   -0.0100
     25 H25         1.7917    1.3411   46.5533 H       1  ZINC000744839011    0.0700
     26 H26         1.1020    1.1080   48.1777 H       1  ZINC000744839011    0.0700
     27 H27         1.2888   -0.2824   47.0821 H       1  ZINC000744839011    0.1100
     28 H28         0.1397    4.3081   48.1923 H       1  ZINC000744839011    0.1500
     29 H29        -0.9983    5.2191   50.1701 H       1  ZINC000744839011    0.1500
     30 H30        -1.9376    3.4366   52.3608 H       1  ZINC000744839011    0.0900
     31 H31        -1.9791    5.2118   52.4839 H       1  ZINC000744839011    0.1000
     32 H32        -4.2257    5.0942   53.5159 H       1  ZINC000744839011    0.1100
     33 H33        -4.2008    3.3197   53.3785 H       1  ZINC000744839011    0.0900
     34 H34        -2.8510    5.0258   57.6399 H       1  ZINC000744839011    0.1700
     35 H35        -3.5269    3.4022   57.9141 H       1  ZINC000744839011    0.1700
     36 H36        -1.6198    2.3108   59.2248 H       1  ZINC000744839011    0.1400
     37 H37         0.7540    1.9560   59.8476 H       1  ZINC000744839011    0.0900
     38 H38         0.3986    1.2465   58.2543 H       1  ZINC000744839011    0.0700
     39 H39         1.2686    2.7956   58.3648 H       1  ZINC000744839011    0.0800
     40 H40        -1.6621    4.7707   59.5344 H       1  ZINC000744839011    0.0800
     41 H41        -0.4494    4.0141   60.5951 H       1  ZINC000744839011    0.0900
     42 H42         0.0651    4.8535   59.1124 H       1  ZINC000744839011    0.0800
     43 H43        -3.0661    1.5056   47.6527 H       1  ZINC000744839011    0.1600
@<TRIPOS>BOND
     1     1     2    1
     2     1    25    1
     3     1    26    1
     4     1    27    1
     5     2     3    1
     6     3     4    2
     7     3     5    1
     8     5    24   ar
     9     5     6   ar
    10     6     7   ar
    11     6    28    1
    12     7     8   ar
    13     7    29    1
    14     8     9    1
    15     8    22   ar
    16     9    10    1
    17    10    11    1
    18    10    30    1
    19    10    31    1
    20    11    12    1
    21    11    32    1
    22    11    33    1
    23    12    13    1
    24    13    14    2
    25    13    15    1
    26    15    16    1
    27    15    34    1
    28    15    35    1
    29    16    17    2
    30    16    18    2
    31    16    19    1
    32    19    20    1
    33    19    21    1
    34    19    36    1
    35    20    37    1
    36    20    38    1
    37    20    39    1
    38    21    40    1
    39    21    41    1
    40    21    42    1
    41    22    23    1
    42    22    24   ar
    43    24    43    1
@<TRIPOS>SUBSTRUCTURE
     1 ZINC000744839011        1 TEMP              0 ****  ****    0 ROOT


##########                                Name:    ZINC000179496896
##########                DOCK_Rotatable_Bonds:                   8
##########                         Heavy_Atoms:                  27
##########                    Molecular_Weight:             396.504
##########                DOCK_Rotatable_Bonds:                   8
##########                       Formal_Charge:          0.00999944
##########                     HBond_Acceptors:                   8
##########                        HBond_Donors:                   1
##########                         Heavy_Atoms:                  27
##########                          Grid_Score:          -31.867418
##########                     Grid_vdw_energy:          -30.221291
##########                      Grid_es_energy:           -1.646128
##########           Internal_energy_repulsive:           24.123144

@<TRIPOS>MOLECULE
ZINC000179496896
 53 55 1 0 0
SMALL
USER_CHARGES


@<TRIPOS>ATOM
      1 C1          0.1245    3.1851   45.9265 C.3     1  ZINC000179496896   -0.1500
      2 C2         -0.9107    2.7366   46.9600 C.3     1  ZINC000179496896   -0.1100
      3 C3         -1.5596    1.4302   46.4981 C.3     1  ZINC000179496896   -0.1400
      4 C4         -0.2226    2.5153   48.3084 C.3     1  ZINC000179496896    0.1200
      5 N5         -1.1858    2.7352   49.3901 N.pl3   1  ZINC000179496896   -0.3300
      6 N6         -2.5789    2.6863   49.2670 N.2     1  ZINC000179496896   -0.2700
      7 C7         -3.1148    2.9308   50.4308 C.2     1  ZINC000179496896    0.0800
      8 C8         -2.0696    3.1484   51.3562 C.2     1  ZINC000179496896   -0.2500
      9 C9         -2.2202    3.4568   52.7900 C.2     1  ZINC000179496896    0.5900
     10 O10        -3.2839    3.8643   53.2159 O.2     1  ZINC000179496896   -0.5300
     11 N11        -1.1790    3.2871   53.6289 N.am    1  ZINC000179496896   -0.7100
     12 C12        -1.3282    3.5953   55.0534 C.3     1  ZINC000179496896    0.1300
     13 C13         0.0096    3.3815   55.7642 C.3     1  ZINC000179496896    0.0700
     14 H14         0.6026    2.6531   55.2110 H       1  ZINC000179496896    0.0900
     15 C15         0.7677    4.7086   55.8343 C.3     1  ZINC000179496896   -0.1900
     16 N16        -0.2328    2.8836   57.1248 N.3     1  ZINC000179496896   -0.5300
     17 C17        -0.7305    3.9565   57.9974 C.3     1  ZINC000179496896    0.0600
     18 C18        -1.3421    3.3341   59.2586 C.3     1  ZINC000179496896   -0.0400
     19 C19        -0.3562    2.3261   59.8104 C.2     1  ZINC000179496896   -0.1700
     20 C20         0.6894    1.8368   59.1147 C.2     1  ZINC000179496896   -0.1100
     21 C21         1.4576    0.9253   59.8299 C.2     1  ZINC000179496896   -0.1200
     22 C22         1.0500    0.6776   61.0715 C.2     1  ZINC000179496896   -0.2200
     23 S23        -0.3896    1.6246   61.4197 S.3     1  ZINC000179496896    0.1000
     24 C24         0.9762    2.2610   57.6807 C.3     1  ZINC000179496896    0.1200
     25 C25        -0.8807    3.0117   50.6680 C.2     1  ZINC000179496896    0.0700
     26 C26         0.5046    3.1564   51.2431 C.3     1  ZINC000179496896    0.3400
     27 F27         1.4150    2.4496   50.4503 F       1  ZINC000179496896   -0.1500
     28 F28         0.8601    4.5093   51.2681 F       1  ZINC000179496896   -0.2000
     29 H29        -0.3658    3.3426   44.9658 H       1  ZINC000179496896    0.0600
     30 H30         0.5867    4.1157   46.2556 H       1  ZINC000179496896    0.0600
     31 H31         0.8900    2.4163   45.8218 H       1  ZINC000179496896    0.0600
     32 H32        -1.6764    3.5054   47.0645 H       1  ZINC000179496896    0.0800
     33 H33        -0.7941    0.6614   46.3936 H       1  ZINC000179496896    0.0600
     34 H34        -2.2972    1.1107   47.2344 H       1  ZINC000179496896    0.0600
     35 H35        -2.0500    1.5878   45.5375 H       1  ZINC000179496896    0.0700
     36 H36         0.1553    1.4942   48.3603 H       1  ZINC000179496896    0.1000
     37 H37         0.6065    3.2153   48.4124 H       1  ZINC000179496896    0.1000
     38 H38        -4.1721    2.9617   50.6489 H       1  ZINC000179496896    0.2000
     39 H39        -0.3309    2.9610   53.2894 H       1  ZINC000179496896    0.4100
     40 H40        -1.6397    4.6333   55.1698 H       1  ZINC000179496896    0.0700
     41 H41        -2.0807    2.9388   55.4902 H       1  ZINC000179496896    0.0700
     42 H42         1.7208    4.5564   56.3407 H       1  ZINC000179496896    0.0600
     43 H43         0.9476    5.0781   54.8247 H       1  ZINC000179496896    0.0700
     44 H44         0.1747    5.4370   56.3874 H       1  ZINC000179496896    0.0600
     45 H45         0.0950    4.6109   58.2776 H       1  ZINC000179496896    0.0400
     46 H46        -1.4906    4.5324   57.4697 H       1  ZINC000179496896    0.0900
     47 H47        -1.5278    4.1114   59.9998 H       1  ZINC000179496896    0.0800
     48 H48        -2.2772    2.8343   59.0060 H       1  ZINC000179496896    0.0900
     49 H49         2.3287    0.4489   59.4048 H       1  ZINC000179496896    0.1400
     50 H50         1.5302   -0.0014   61.7606 H       1  ZINC000179496896    0.1600
     51 H51         1.2436    1.3869   57.0871 H       1  ZINC000179496896    0.0900
     52 H52         1.7960    2.9793   57.6688 H       1  ZINC000179496896    0.0500
     53 H53         0.5204    2.7580   52.2576 H       1  ZINC000179496896    0.1300
@<TRIPOS>BOND
     1     1     2    1
     2     1    29    1
     3     1    30    1
     4     1    31    1
     5     2     3    1
     6     2     4    1
     7     2    32    1
     8     3    33    1
     9     3    34    1
    10     3    35    1
    11     4     5    1
    12     4    36    1
    13     4    37    1
    14     5    25    1
    15     5     6    1
    16     6     7    2
    17     7     8    1
    18     7    38    1
    19     8     9    1
    20     8    25    2
    21     9    10    2
    22     9    11   am
    23    11    12    1
    24    11    39    1
    25    12    13    1
    26    12    40    1
    27    12    41    1
    28    13    14    1
    29    13    15    1
    30    13    16    1
    31    15    42    1
    32    15    43    1
    33    15    44    1
    34    16    24    1
    35    16    17    1
    36    17    18    1
    37    17    45    1
    38    17    46    1
    39    18    19    1
    40    18    47    1
    41    18    48    1
    42    19    23    1
    43    19    20    2
    44    20    21    1
    45    20    24    1
    46    21    22    2
    47    21    49    1
    48    22    23    1
    49    22    50    1
    50    24    51    1
    51    24    52    1
    52    25    26    1
    53    26    27    1
    54    26    28    1
    55    26    53    1
@<TRIPOS>SUBSTRUCTURE
     1 ZINC000179496896        1 TEMP              0 ****  ****    0 ROOT


##########                                Name:    ZINC000492313853
##########                DOCK_Rotatable_Bonds:                   8
##########                         Heavy_Atoms:                  30
##########                    Molecular_Weight:             418.422
##########                DOCK_Rotatable_Bonds:                   8
##########                       Formal_Charge:          -0.0100008
##########                     HBond_Acceptors:                  10
##########                        HBond_Donors:                   2
##########                         Heavy_Atoms:                  30
##########                          Grid_Score:          -31.854137
##########                     Grid_vdw_energy:          -31.825811
##########                      Grid_es_energy:           -0.028327
##########           Internal_energy_repulsive:           12.524082

@<TRIPOS>MOLECULE
ZINC000492313853
 51 53 1 0 0
SMALL
USER_CHARGES


@<TRIPOS>ATOM
      1 C1        -12.4630    1.9645   45.6572 C.3     1  ZINC000492313853    0.0900
      2 N2        -12.8963    1.8077   47.0479 N.pl3   1  ZINC000492313853   -0.6200
      3 C3        -13.9225    0.8192   47.3883 C.3     1  ZINC000492313853    0.1000
      4 C4        -12.3337    2.5969   48.0444 C.ar    1  ZINC000492313853    0.4100
      5 C5        -12.7206    2.4151   49.3681 C.ar    1  ZINC000492313853   -0.2400
      6 C6        -12.1523    3.2071   50.3498 C.ar    1  ZINC000492313853   -0.0100
      7 C7        -11.2128    4.1574   49.9731 C.ar    1  ZINC000492313853   -0.2300
      8 C8        -10.5673    5.0417   51.0087 C.3     1  ZINC000492313853    0.2000
      9 N9         -9.6053    4.2589   51.7883 N.am    1  ZINC000492313853   -0.7300
     10 C10        -8.4375    3.8796   51.2326 C.2     1  ZINC000492313853    0.7100
     11 O11        -8.1817    4.1883   50.0847 O.2     1  ZINC000492313853   -0.5600
     12 N12        -7.5530    3.1580   51.9493 N.am    1  ZINC000492313853   -0.6600
     13 C13        -6.3449    2.7639   51.3736 C.2     1  ZINC000492313853    0.3300
     14 C14        -5.3857    3.5897   50.8792 C.2     1  ZINC000492313853   -0.2600
     15 C15        -4.3360    2.7875   50.3940 C.2     1  ZINC000492313853    0.1200
     16 C16        -3.0831    3.2780   49.7676 C.ar    1  ZINC000492313853   -0.0100
     17 C17        -2.4634    4.4281   50.2512 C.ar    1  ZINC000492313853   -0.0600
     18 C18        -1.2981    4.8797   49.6650 C.ar    1  ZINC000492313853   -0.1200
     19 C19        -0.7456    4.1925   48.5997 C.ar    1  ZINC000492313853   -0.0700
     20 C20        -1.3567    3.0497   48.1154 C.ar    1  ZINC000492313853   -0.1900
     21 C21        -0.7487    2.3058   46.9544 C.3     1  ZINC000492313853    0.5100
     22 F22         0.3753    1.5969   47.3920 F       1  ZINC000492313853   -0.1800
     23 F23        -1.6883    1.4122   46.4295 F       1  ZINC000492313853   -0.1800
     24 F24        -0.3683    3.2178   45.9640 F       1  ZINC000492313853   -0.1800
     25 C25        -2.5193    2.5865   48.6972 C.ar    1  ZINC000492313853   -0.0400
     26 N26        -4.6582    1.5269   50.5921 N.2     1  ZINC000492313853   -0.2700
     27 N27        -5.9135    1.4857   51.2117 N.pl3   1  ZINC000492313853   -0.3900
     28 C28        -6.6389    0.2759   51.6074 C.3     1  ZINC000492313853    0.1000
     29 C29       -10.8755    4.2836   48.6403 C.ar    1  ZINC000492313853    0.1700
     30 N30       -11.4302    3.5110   47.7257 N.ar    1  ZINC000492313853   -0.5400
     31 H31       -13.0860    2.7110   45.1645 H       1  ZINC000492313853    0.0600
     32 H32       -11.4223    2.2881   45.6352 H       1  ZINC000492313853    0.0700
     33 H33       -12.5581    1.0113   45.1373 H       1  ZINC000492313853    0.0700
     34 H34       -14.2417    0.3007   46.4841 H       1  ZINC000492313853    0.0700
     35 H35       -13.5122    0.0979   48.0950 H       1  ZINC000492313853    0.0600
     36 H36       -14.7774    1.3234   47.8389 H       1  ZINC000492313853    0.0600
     37 H37       -13.4549    1.6664   49.6259 H       1  ZINC000492313853    0.1300
     38 H38       -12.4334    3.0890   51.3858 H       1  ZINC000492313853    0.1400
     39 H39       -10.0503    5.8636   50.5132 H       1  ZINC000492313853    0.0800
     40 H40       -11.3332    5.4421   51.6729 H       1  ZINC000492313853    0.0800
     41 H41        -9.8088    4.0136   52.7044 H       1  ZINC000492313853    0.4000
     42 H42        -7.7566    2.9127   52.8655 H       1  ZINC000492313853    0.4100
     43 H43        -5.4225    4.6689   50.8613 H       1  ZINC000492313853    0.1800
     44 H44        -2.8943    4.9658   51.0829 H       1  ZINC000492313853    0.1400
     45 H45        -0.8170    5.7714   50.0390 H       1  ZINC000492313853    0.1400
     46 H46         0.1661    4.5493   48.1438 H       1  ZINC000492313853    0.1400
     47 H47        -2.9956    1.6943   48.3184 H       1  ZINC000492313853    0.1400
     48 H48        -6.3645    0.0049   52.6268 H       1  ZINC000492313853    0.0800
     49 H49        -7.7116    0.4627   51.5572 H       1  ZINC000492313853    0.0800
     50 H50        -6.3801   -0.5399   50.9324 H       1  ZINC000492313853    0.1000
     51 H51       -10.1451    5.0216   48.3428 H       1  ZINC000492313853    0.1600
@<TRIPOS>BOND
     1     1     2    1
     2     1    31    1
     3     1    32    1
     4     1    33    1
     5     2     3    1
     6     2     4    1
     7     3    34    1
     8     3    35    1
     9     3    36    1
    10     4    30   ar
    11     4     5   ar
    12     5     6   ar
    13     5    37    1
    14     6     7   ar
    15     6    38    1
    16     7     8    1
    17     7    29   ar
    18     8     9    1
    19     8    39    1
    20     8    40    1
    21     9    10   am
    22     9    41    1
    23    10    11    2
    24    10    12   am
    25    12    13    1
    26    12    42    1
    27    13    27    1
    28    13    14    2
    29    14    15    1
    30    14    43    1
    31    15    16    1
    32    15    26    2
    33    16    25   ar
    34    16    17   ar
    35    17    18   ar
    36    17    44    1
    37    18    19   ar
    38    18    45    1
    39    19    20   ar
    40    19    46    1
    41    20    21    1
    42    20    25   ar
    43    21    22    1
    44    21    23    1
    45    21    24    1
    46    25    47    1
    47    26    27    1
    48    27    28    1
    49    28    48    1
    50    28    49    1
    51    28    50    1
    52    29    30   ar
    53    29    51    1
@<TRIPOS>SUBSTRUCTURE
     1 ZINC000492313853        1 TEMP              0 ****  ****    0 ROOT


##########                                Name:    ZINC000185598309
##########                DOCK_Rotatable_Bonds:                  14
##########                         Heavy_Atoms:                  25
##########                    Molecular_Weight:             347.457
##########                DOCK_Rotatable_Bonds:                  14
##########                       Formal_Charge:               -0.02
##########                     HBond_Acceptors:                   6
##########                        HBond_Donors:                   4
##########                         Heavy_Atoms:                  25
##########                          Grid_Score:          -31.852030
##########                     Grid_vdw_energy:          -30.756834
##########                      Grid_es_energy:           -1.095196
##########           Internal_energy_repulsive:           13.137750

@<TRIPOS>MOLECULE
ZINC000185598309
 54 54 1 0 0
SMALL
USER_CHARGES


@<TRIPOS>ATOM
      1 C1          4.1238   -1.2900   50.2173 C.3     1  ZINC000185598309   -0.1300
      2 C2          2.7761   -1.7464   49.7208 C.2     1  ZINC000185598309   -0.1600
      3 C3          2.2797   -1.2434   48.6178 C.2     1  ZINC000185598309   -0.1600
      4 C4          3.0554   -0.2070   47.8463 C.3     1  ZINC000185598309   -0.0900
      5 C5          2.0835    0.6861   47.0727 C.3     1  ZINC000185598309    0.1700
      6 H6          1.4395    0.0669   46.4482 H       1  ZINC000185598309    0.1000
      7 C7          2.8732    1.6539   46.1891 C.3     1  ZINC000185598309    0.0600
      8 O8          1.9732    2.3597   45.3327 O.3     1  ZINC000185598309   -0.5700
      9 N9          1.2621    1.4471   48.0173 N.am    1  ZINC000185598309   -0.7300
     10 C10        -0.0561    1.6079   47.7869 C.2     1  ZINC000185598309    0.7000
     11 O11        -0.5638    1.1200   46.7956 O.2     1  ZINC000185598309   -0.5900
     12 N12        -0.8113    2.3093   48.6552 N.am    1  ZINC000185598309   -0.7400
     13 C13        -2.2438    2.4855   48.4037 C.3     1  ZINC000185598309    0.1800
     14 C14        -2.8586    3.2739   49.5315 C.ar    1  ZINC000185598309   -0.0900
     15 C15        -2.5595    4.6155   49.6794 C.ar    1  ZINC000185598309   -0.1100
     16 C16        -3.1212    5.3424   50.7133 C.ar    1  ZINC000185598309   -0.1000
     17 C17        -3.9833    4.7297   51.6012 C.ar    1  ZINC000185598309   -0.1100
     18 C18        -4.2860    3.3821   51.4551 C.ar    1  ZINC000185598309    0.1400
     19 N19        -5.1595    2.7584   52.3528 N.am    1  ZINC000185598309   -0.6800
     20 C20        -6.4849    2.7501   52.1078 C.2     1  ZINC000185598309    0.5200
     21 O21        -6.9203    3.2835   51.1093 O.2     1  ZINC000185598309   -0.5200
     22 C22        -7.4257    2.0784   53.0746 C.3     1  ZINC000185598309   -0.1100
     23 H23        -6.9440    1.9902   54.0484 H       1  ZINC000185598309    0.1000
     24 C24        -7.7824    0.6846   52.5541 C.3     1  ZINC000185598309   -0.1500
     25 C25        -8.7002    2.9139   53.2098 C.3     1  ZINC000185598309   -0.1100
     26 C26        -9.3858    2.5870   54.5380 C.3     1  ZINC000185598309   -0.1600
     27 C27        -3.7245    2.6564   50.4129 C.ar    1  ZINC000185598309   -0.1300
     28 H28         4.3678   -1.8153   51.1407 H       1  ZINC000185598309    0.0600
     29 H29         4.8812   -1.5079   49.4644 H       1  ZINC000185598309    0.0600
     30 H30         4.0971   -0.2169   50.4060 H       1  ZINC000185598309    0.0600
     31 H31         2.2194   -2.4882   50.2744 H       1  ZINC000185598309    0.1100
     32 H32         1.3143   -1.5714   48.2613 H       1  ZINC000185598309    0.1100
     33 H33         3.6360    0.4024   48.5390 H       1  ZINC000185598309    0.0900
     34 H34         3.7283   -0.7031   47.1468 H       1  ZINC000185598309    0.0800
     35 H35         3.4094    2.3647   46.8179 H       1  ZINC000185598309    0.0500
     36 H36         3.5865    1.0939   45.5843 H       1  ZINC000185598309    0.0500
     37 H37         1.4964    1.7933   44.7106 H       1  ZINC000185598309    0.3800
     38 H38         1.6669    1.8353   48.8088 H       1  ZINC000185598309    0.4000
     39 H39        -0.4065    2.6976   49.4466 H       1  ZINC000185598309    0.4000
     40 H40        -2.3847    3.0228   47.4658 H       1  ZINC000185598309    0.0700
     41 H41        -2.7241    1.5092   48.3388 H       1  ZINC000185598309    0.0800
     42 H42        -1.8856    5.0970   48.9863 H       1  ZINC000185598309    0.1300
     43 H43        -2.8851    6.3901   50.8267 H       1  ZINC000185598309    0.1300
     44 H44        -4.4213    5.2977   52.4086 H       1  ZINC000185598309    0.1300
     45 H45        -4.8113    2.3319   53.1513 H       1  ZINC000185598309    0.4100
     46 H46        -6.8744    0.0893   52.4576 H       1  ZINC000185598309    0.0600
     47 H47        -8.4629    0.1987   53.2532 H       1  ZINC000185598309    0.0800
     48 H48        -8.2640    0.7728   51.5802 H       1  ZINC000185598309    0.0600
     49 H49        -8.4447    3.9733   53.1839 H       1  ZINC000185598309    0.0700
     50 H50        -9.3753    2.6827   52.3859 H       1  ZINC000185598309    0.0700
     51 H51        -9.6413    1.5277   54.5640 H       1  ZINC000185598309    0.0600
     52 H52        -8.7106    2.8183   55.3620 H       1  ZINC000185598309    0.0600
     53 H53       -10.2938    3.1823   54.6343 H       1  ZINC000185598309    0.0600
     54 H54        -3.9580    1.6084   50.2966 H       1  ZINC000185598309    0.1300
@<TRIPOS>BOND
     1     1     2    1
     2     1    28    1
     3     1    29    1
     4     1    30    1
     5     2     3    2
     6     2    31    1
     7     3     4    1
     8     3    32    1
     9     4     5    1
    10     4    33    1
    11     4    34    1
    12     5     6    1
    13     5     7    1
    14     5     9    1
    15     7     8    1
    16     7    35    1
    17     7    36    1
    18     8    37    1
    19     9    10   am
    20     9    38    1
    21    10    11    2
    22    10    12   am
    23    12    13    1
    24    12    39    1
    25    13    14    1
    26    13    40    1
    27    13    41    1
    28    14    27   ar
    29    14    15   ar
    30    15    16   ar
    31    15    42    1
    32    16    17   ar
    33    16    43    1
    34    17    18   ar
    35    17    44    1
    36    18    19    1
    37    18    27   ar
    38    19    20   am
    39    19    45    1
    40    20    21    2
    41    20    22    1
    42    22    23    1
    43    22    24    1
    44    22    25    1
    45    24    46    1
    46    24    47    1
    47    24    48    1
    48    25    26    1
    49    25    49    1
    50    25    50    1
    51    26    51    1
    52    26    52    1
    53    26    53    1
    54    27    54    1
@<TRIPOS>SUBSTRUCTURE
     1 ZINC000185598309        1 TEMP              0 ****  ****    0 ROOT


##########                                Name:    ZINC001087843226
##########                DOCK_Rotatable_Bonds:                   6
##########                         Heavy_Atoms:                  27
##########                    Molecular_Weight:             368.479
##########                DOCK_Rotatable_Bonds:                   6
##########                       Formal_Charge:        -4.47035e-07
##########                     HBond_Acceptors:                   6
##########                        HBond_Donors:                   1
##########                         Heavy_Atoms:                  27
##########                          Grid_Score:          -31.850855
##########                     Grid_vdw_energy:          -30.625853
##########                      Grid_es_energy:           -1.225003
##########           Internal_energy_repulsive:           27.425900

@<TRIPOS>MOLECULE
ZINC001087843226
 55 58 1 0 0
SMALL
USER_CHARGES


@<TRIPOS>ATOM
      1 C1          2.2767    2.9969   55.6657 C.3     1  ZINC001087843226   -0.1500
      2 C2          1.7601    2.6935   57.0735 C.3     1  ZINC001087843226   -0.1500
      3 C3          0.3186    2.1874   56.9898 C.3     1  ZINC001087843226    0.0700
      4 H4          0.2769    1.2871   56.3768 H       1  ZINC001087843226    0.1000
      5 C5         -0.5866    3.2792   56.3813 C.3     1  ZINC001087843226    0.1300
      6 H6         -0.1457    4.2664   56.5195 H       1  ZINC001087843226    0.1000
      7 N7         -0.8308    3.0172   54.9608 N.am    1  ZINC001087843226   -0.7200
      8 C8         -0.9504    4.0448   54.0969 C.2     1  ZINC001087843226    0.5600
      9 O9         -0.8570    5.1889   54.4966 O.2     1  ZINC001087843226   -0.5300
     10 C10        -1.1951    3.7803   52.6630 C.ar    1  ZINC001087843226   -0.1400
     11 C11        -2.5010    3.6732   52.1858 C.ar    1  ZINC001087843226   -0.0800
     12 C12        -2.7229    3.4263   50.8466 C.ar    1  ZINC001087843226   -0.1300
     13 C13        -1.6542    3.2861   49.9814 C.ar    1  ZINC001087843226   -0.0400
     14 C14        -1.9059    3.0168   48.5201 C.3     1  ZINC001087843226   -0.1200
     15 C15        -0.3524    3.3915   50.4471 C.ar    1  ZINC001087843226   -0.1100
     16 C16        -0.1175    3.6431   51.7827 C.ar    1  ZINC001087843226   -0.0300
     17 C17         1.3728    3.7112   52.0381 C.3     1  ZINC001087843226   -0.0800
     18 C18         2.0239    3.0445   50.8077 C.3     1  ZINC001087843226   -0.1200
     19 C19         0.9641    3.2783   49.7080 C.3     1  ZINC001087843226   -0.0800
     20 C20        -1.8967    3.1438   57.2012 C.3     1  ZINC001087843226   -0.1400
     21 C21        -1.3513    2.7800   58.6047 C.3     1  ZINC001087843226    0.0400
     22 N22        -0.1905    1.8971   58.3427 N.3     1  ZINC001087843226   -0.5100
     23 C23         0.8581    2.0925   59.3528 C.3     1  ZINC001087843226    0.1100
     24 C24         0.3042    1.7796   60.7190 C.2     1  ZINC001087843226    0.0800
     25 N25        -0.1136    2.6593   61.5795 N.2     1  ZINC001087843226   -0.2700
     26 O26        -0.5516    1.9534   62.7296 O.3     1  ZINC001087843226    0.0300
     27 N27        -0.3484    0.5762   62.4555 N.2     1  ZINC001087843226   -0.2800
     28 C28         0.1530    0.4875   61.2599 C.2     1  ZINC001087843226    0.0900
     29 C29         0.5248   -0.7968   60.5646 C.3     1  ZINC001087843226   -0.0900
     30 H30         3.2783    3.4219   55.7300 H       1  ZINC001087843226    0.0600
     31 H31         2.3097    2.0754   55.0844 H       1  ZINC001087843226    0.0600
     32 H32         1.6101    3.7094   55.1797 H       1  ZINC001087843226    0.0600
     33 H33         2.3870    1.9299   57.5339 H       1  ZINC001087843226    0.0800
     34 H34         1.7919    3.6015   57.6757 H       1  ZINC001087843226    0.0700
     35 H35        -0.9065    2.1042   54.6420 H       1  ZINC001087843226    0.4000
     36 H36        -3.3358    3.7825   52.8622 H       1  ZINC001087843226    0.1300
     37 H37        -3.7331    3.3422   50.4739 H       1  ZINC001087843226    0.1300
     38 H38        -1.9825    3.9629   47.9843 H       1  ZINC001087843226    0.0800
     39 H39        -1.0812    2.4332   48.1110 H       1  ZINC001087843226    0.0700
     40 H40        -2.8360    2.4596   48.4083 H       1  ZINC001087843226    0.0700
     41 H41         1.6953    4.7491   52.1210 H       1  ZINC001087843226    0.0800
     42 H42         1.6266    3.1619   52.9447 H       1  ZINC001087843226    0.0900
     43 H43         2.9615    3.5374   50.5506 H       1  ZINC001087843226    0.0800
     44 H44         2.1792    1.9796   50.9807 H       1  ZINC001087843226    0.0700
     45 H45         0.9373    2.4313   49.0225 H       1  ZINC001087843226    0.0800
     46 H46         1.1791    4.1987   49.1652 H       1  ZINC001087843226    0.0800
     47 H47        -2.4408    4.0880   57.2264 H       1  ZINC001087843226    0.0800
     48 H48        -2.5234    2.3442   56.8065 H       1  ZINC001087843226    0.0800
     49 H49        -1.0343    3.6791   59.1334 H       1  ZINC001087843226    0.0600
     50 H50        -2.1089    2.2478   59.1799 H       1  ZINC001087843226    0.0800
     51 H51         1.6961    1.4288   59.1398 H       1  ZINC001087843226    0.1200
     52 H52         1.1988    3.1276   59.3272 H       1  ZINC001087843226    0.0700
     53 H53        -0.3009   -1.1185   59.9298 H       1  ZINC001087843226    0.1000
     54 H54         1.4120   -0.6348   59.9523 H       1  ZINC001087843226    0.0900
     55 H55         0.7321   -1.5659   61.3085 H       1  ZINC001087843226    0.0900
@<TRIPOS>BOND
     1     1     2    1
     2     1    30    1
     3     1    31    1
     4     1    32    1
     5     2     3    1
     6     2    33    1
     7     2    34    1
     8     3     4    1
     9     3    22    1
    10     3     5    1
    11     5     6    1
    12     5     7    1
    13     5    20    1
    14     7     8   am
    15     7    35    1
    16     8     9    2
    17     8    10    1
    18    10    16   ar
    19    10    11   ar
    20    11    12   ar
    21    11    36    1
    22    12    13   ar
    23    12    37    1
    24    13    14    1
    25    13    15   ar
    26    14    38    1
    27    14    39    1
    28    14    40    1
    29    15    19    1
    30    15    16   ar
    31    16    17    1
    32    17    18    1
    33    17    41    1
    34    17    42    1
    35    18    19    1
    36    18    43    1
    37    18    44    1
    38    19    45    1
    39    19    46    1
    40    20    21    1
    41    20    47    1
    42    20    48    1
    43    21    22    1
    44    21    49    1
    45    21    50    1
    46    22    23    1
    47    23    24    1
    48    23    51    1
    49    23    52    1
    50    24    28    1
    51    24    25    2
    52    25    26    1
    53    26    27    1
    54    27    28    2
    55    28    29    1
    56    29    53    1
    57    29    54    1
    58    29    55    1
@<TRIPOS>SUBSTRUCTURE
     1 ZINC001087843226        1 TEMP              0 ****  ****    0 ROOT


##########                                Name:    ZINC000058043838
##########                DOCK_Rotatable_Bonds:                   8
##########                         Heavy_Atoms:                  29
##########                    Molecular_Weight:             412.469
##########                DOCK_Rotatable_Bonds:                   8
##########                       Formal_Charge:           0.0200001
##########                     HBond_Acceptors:                   9
##########                        HBond_Donors:                   0
##########                         Heavy_Atoms:                  29
##########                          Grid_Score:          -31.833679
##########                     Grid_vdw_energy:          -29.449253
##########                      Grid_es_energy:           -2.384426
##########           Internal_energy_repulsive:           12.549401

@<TRIPOS>MOLECULE
ZINC000058043838
 49 51 1 0 0
SMALL
USER_CHARGES


@<TRIPOS>ATOM
      1 C1        -15.0619   -0.1743   53.7435 C.3     1  ZINC000058043838    0.0300
      2 O2        -14.1907   -0.2918   54.8701 O.3     1  ZINC000058043838   -0.3800
      3 C3        -12.8910   -0.7921   54.5501 C.3     1  ZINC000058043838    0.0300
      4 C4        -12.9355   -2.3198   54.4803 C.3     1  ZINC000058043838    0.1000
      5 N5        -12.5128   -2.8800   55.7662 N.am    1  ZINC000058043838   -0.5200
      6 C6        -11.2033   -2.9315   56.0809 C.2     1  ZINC000058043838    0.5100
      7 O7        -10.3748   -2.5156   55.2989 O.2     1  ZINC000058043838   -0.4500
      8 C8        -10.7684   -3.5062   57.4045 C.3     1  ZINC000058043838   -0.0900
      9 C9        -10.2405   -2.4013   58.2827 C.ar    1  ZINC000058043838   -0.1400
     10 C10        -9.1254   -2.6102   59.0795 C.ar    1  ZINC000058043838   -0.0500
     11 C11        -8.6748   -1.5646   59.8713 C.ar    1  ZINC000058043838   -0.1700
     12 C12        -9.3473   -0.3579   59.8399 C.ar    1  ZINC000058043838    0.1300
     13 C13        -8.8661    0.7854   60.6957 C.3     1  ZINC000058043838   -0.1100
     14 N14       -10.4051   -0.1949   59.0693 N.ar    1  ZINC000058043838   -0.4800
     15 C15       -10.8585   -1.1650   58.2998 C.ar    1  ZINC000058043838    0.1200
     16 C16       -13.4618   -3.3582   56.6614 C.2     1  ZINC000058043838    0.3100
     17 N17       -13.9445   -2.6964   57.6664 N.2     1  ZINC000058043838   -0.4700
     18 C18       -14.8463   -3.3139   58.4166 C.2     1  ZINC000058043838    0.1100
     19 C19       -15.4751   -2.6672   59.5940 C.ar    1  ZINC000058043838    0.0400
     20 C20       -16.8242   -2.3182   59.5629 C.ar    1  ZINC000058043838   -0.0800
     21 C21       -17.4041   -1.7170   60.6615 C.ar    1  ZINC000058043838   -0.0500
     22 C22       -16.6491   -1.4608   61.7920 C.ar    1  ZINC000058043838   -0.0400
     23 N23       -17.2769   -0.8158   62.9673 N.pl3   1  ZINC000058043838    0.0300
     24 O24       -18.4559   -0.5118   62.9378 O.2     1  ZINC000058043838   -0.1600
     25 O25       -16.6142   -0.5891   63.9639 O.2     1  ZINC000058043838   -0.1600
     26 C26       -15.3099   -1.8054   61.8286 C.ar    1  ZINC000058043838   -0.0500
     27 C27       -14.7206   -2.4113   60.7376 C.ar    1  ZINC000058043838   -0.1100
     28 C28       -15.1518   -4.5674   58.0362 C.2     1  ZINC000058043838   -0.2600
     29 S29       -14.2020   -4.9552   56.6034 S.3     1  ZINC000058043838    0.1500
     30 H30       -14.6245    0.5091   53.0157 H       1  ZINC000058043838    0.0500
     31 H31       -15.1982   -1.1541   53.2857 H       1  ZINC000058043838    0.0400
     32 H32       -16.0277    0.2118   54.0697 H       1  ZINC000058043838    0.0900
     33 H33       -12.5754   -0.3934   53.5861 H       1  ZINC000058043838    0.0600
     34 H34       -12.1834   -0.4841   55.3199 H       1  ZINC000058043838    0.0800
     35 H35       -13.9524   -2.6440   54.2595 H       1  ZINC000058043838    0.1200
     36 H36       -12.2646   -2.6673   53.6945 H       1  ZINC000058043838    0.1000
     37 H37       -11.6198   -3.9818   57.8914 H       1  ZINC000058043838    0.1100
     38 H38        -9.9845   -4.2454   57.2397 H       1  ZINC000058043838    0.1100
     39 H39        -8.6200   -3.5645   59.0838 H       1  ZINC000058043838    0.1300
     40 H40        -7.8093   -1.6919   60.5047 H       1  ZINC000058043838    0.1400
     41 H41        -8.1434    1.3792   60.1360 H       1  ZINC000058043838    0.0800
     42 H42        -9.7132    1.4122   60.9745 H       1  ZINC000058043838    0.0800
     43 H43        -8.3936    0.3918   61.5957 H       1  ZINC000058043838    0.0800
     44 H44       -11.7278   -0.9943   57.6821 H       1  ZINC000058043838    0.1500
     45 H45       -17.4145   -2.5174   58.6808 H       1  ZINC000058043838    0.1600
     46 H46       -18.4492   -1.4459   60.6385 H       1  ZINC000058043838    0.1600
     47 H47       -14.7252   -1.6030   62.7138 H       1  ZINC000058043838    0.1600
     48 H48       -13.6750   -2.6803   60.7674 H       1  ZINC000058043838    0.1500
     49 H49       -15.8599   -5.2219   58.5228 H       1  ZINC000058043838    0.1800
@<TRIPOS>BOND
     1     1     2    1
     2     1    30    1
     3     1    31    1
     4     1    32    1
     5     2     3    1
     6     3     4    1
     7     3    33    1
     8     3    34    1
     9     4     5    1
    10     4    35    1
    11     4    36    1
    12     5     6   am
    13     5    16    1
    14     6     7    2
    15     6     8    1
    16     8     9    1
    17     8    37    1
    18     8    38    1
    19     9    15   ar
    20     9    10   ar
    21    10    11   ar
    22    10    39    1
    23    11    12   ar
    24    11    40    1
    25    12    13    1
    26    12    14   ar
    27    13    41    1
    28    13    42    1
    29    13    43    1
    30    14    15   ar
    31    15    44    1
    32    16    29    1
    33    16    17    2
    34    17    18    1
    35    18    19    1
    36    18    28    2
    37    19    27   ar
    38    19    20   ar
    39    20    21   ar
    40    20    45    1
    41    21    22   ar
    42    21    46    1
    43    22    23    1
    44    22    26   ar
    45    23    24    2
    46    23    25    2
    47    26    27   ar
    48    26    47    1
    49    27    48    1
    50    28    29    1
    51    28    49    1
@<TRIPOS>SUBSTRUCTURE
     1 ZINC000058043838        1 TEMP              0 ****  ****    0 ROOT


##########                                Name:    ZINC000646817380
##########                DOCK_Rotatable_Bonds:                   6
##########                         Heavy_Atoms:                  25
##########                    Molecular_Weight:             347.457
##########                DOCK_Rotatable_Bonds:                   6
##########                       Formal_Charge:           0.0199991
##########                     HBond_Acceptors:                   6
##########                        HBond_Donors:                   1
##########                         Heavy_Atoms:                  25
##########                          Grid_Score:          -31.819433
##########                     Grid_vdw_energy:          -29.660633
##########                      Grid_es_energy:           -2.158800
##########           Internal_energy_repulsive:           60.935463

@<TRIPOS>MOLECULE
ZINC000646817380
 54 56 1 0 0
SMALL
USER_CHARGES


@<TRIPOS>ATOM
      1 C1          1.0019    5.3107   44.3635 C.3     1  ZINC000646817380   -0.1500
      2 C2          0.9469    3.7875   44.4970 C.3     1  ZINC000646817380   -0.0100
      3 C3          2.3445    3.2527   44.8155 C.3     1  ZINC000646817380   -0.1500
      4 C4          0.0007    3.4145   45.6091 C.2     1  ZINC000646817380   -0.0100
      5 C5         -0.3310    4.1751   46.6769 C.2     1  ZINC000646817380   -0.2200
      6 C6         -1.2424    3.3644   47.4049 C.2     1  ZINC000646817380    0.2400
      7 N7         -1.8836    3.6909   48.5985 N.am    1  ZINC000646817380   -0.6100
      8 C8         -2.7169    2.8055   49.1799 C.2     1  ZINC000646817380    0.5200
      9 O9         -2.9080    1.7234   48.6649 O.2     1  ZINC000646817380   -0.4900
     10 C10        -3.4056    3.1562   50.4582 C.2     1  ZINC000646817380    0.5300
     11 O11        -4.6113    3.0501   50.5468 O.2     1  ZINC000646817380   -0.5100
     12 N12        -2.6880    3.5905   51.5132 N.am    1  ZINC000646817380   -0.5800
     13 C13        -1.2285    3.7651   51.5432 C.3     1  ZINC000646817380    0.1000
     14 C14        -0.8545    4.2535   52.9585 C.3     1  ZINC000646817380   -0.1300
     15 C15        -2.0590    3.7855   53.8173 C.3     1  ZINC000646817380   -0.1000
     16 H16        -1.9508    2.7397   54.1051 H       1  ZINC000646817380    0.1000
     17 C17        -2.2325    4.6753   55.0497 C.3     1  ZINC000646817380   -0.0700
     18 H18        -1.8651    5.6798   54.8395 H       1  ZINC000646817380    0.0800
     19 C19        -3.7197    4.7309   55.4563 C.3     1  ZINC000646817380   -0.1300
     20 C20        -3.6897    4.7502   57.0047 C.3     1  ZINC000646817380   -0.1300
     21 C21        -2.5240    3.7856   57.3361 C.3     1  ZINC000646817380   -0.1200
     22 C22        -1.4713    4.0750   56.2446 C.3     1  ZINC000646817380   -0.0700
     23 C23        -0.7796    2.7760   55.8262 C.3     1  ZINC000646817380   -0.1600
     24 C24        -0.4376    5.0756   56.7656 C.3     1  ZINC000646817380   -0.1400
     25 C25        -3.2373    3.9752   52.8261 C.3     1  ZINC000646817380    0.0900
     26 N26        -1.3593    2.2505   46.7303 N.2     1  ZINC000646817380   -0.3800
     27 O27        -0.6807    2.2661   45.7296 O.3     1  ZINC000646817380    0.1100
     28 H28         1.6862    5.5805   43.5592 H       1  ZINC000646817380    0.0700
     29 H29         0.0062    5.6917   44.1366 H       1  ZINC000646817380    0.0600
     30 H30         1.3524    5.7450   45.2998 H       1  ZINC000646817380    0.0600
     31 H31         0.5964    3.3532   43.5607 H       1  ZINC000646817380    0.1100
     32 H32         2.6950    3.6870   45.7519 H       1  ZINC000646817380    0.0600
     33 H33         2.3054    2.1676   44.9106 H       1  ZINC000646817380    0.0600
     34 H34         3.0289    3.5225   44.0111 H       1  ZINC000646817380    0.0700
     35 H35         0.0166    5.1683   46.9200 H       1  ZINC000646817380    0.1900
     36 H36        -1.7299    4.5554   49.0107 H       1  ZINC000646817380    0.4300
     37 H37        -0.7370    2.8142   51.3372 H       1  ZINC000646817380    0.0800
     38 H38        -0.9287    4.5076   50.8036 H       1  ZINC000646817380    0.0800
     39 H39         0.0677    3.7818   53.2981 H       1  ZINC000646817380    0.0900
     40 H40        -0.7641    5.3395   52.9804 H       1  ZINC000646817380    0.0800
     41 H41        -4.1865    5.6380   55.0723 H       1  ZINC000646817380    0.0700
     42 H42        -4.2470    3.8475   55.0959 H       1  ZINC000646817380    0.0800
     43 H43        -3.4780    5.7535   57.3745 H       1  ZINC000646817380    0.0700
     44 H44        -4.6284    4.3766   57.4139 H       1  ZINC000646817380    0.0700
     45 H45        -2.1181    4.0031   58.3241 H       1  ZINC000646817380    0.0700
     46 H46        -2.8581    2.7497   57.2794 H       1  ZINC000646817380    0.0700
     47 H47        -1.5098    1.9671   55.8017 H       1  ZINC000646817380    0.0700
     48 H48        -0.3418    2.9003   54.8358 H       1  ZINC000646817380    0.0600
     49 H49         0.0056    2.5353   56.5429 H       1  ZINC000646817380    0.0500
     50 H50         0.0780    4.6503   57.6266 H       1  ZINC000646817380    0.0600
     51 H51         0.2858    5.2929   55.9798 H       1  ZINC000646817380    0.0500
     52 H52        -0.9403    5.9964   57.0613 H       1  ZINC000646817380    0.0600
     53 H53        -3.5618    5.0157   52.8173 H       1  ZINC000646817380    0.0900
     54 H54        -4.0667    3.3205   53.0932 H       1  ZINC000646817380    0.1000
@<TRIPOS>BOND
     1     1     2    1
     2     1    28    1
     3     1    29    1
     4     1    30    1
     5     2     3    1
     6     2     4    1
     7     2    31    1
     8     3    32    1
     9     3    33    1
    10     3    34    1
    11     4    27    1
    12     4     5    2
    13     5     6    1
    14     5    35    1
    15     6     7    1
    16     6    26    2
    17     7     8   am
    18     7    36    1
    19     8     9    2
    20     8    10    1
    21    10    11    2
    22    10    12   am
    23    12    25    1
    24    12    13    1
    25    13    14    1
    26    13    37    1
    27    13    38    1
    28    14    15    1
    29    14    39    1
    30    14    40    1
    31    15    16    1
    32    15    17    1
    33    15    25    1
    34    17    18    1
    35    17    22    1
    36    17    19    1
    37    19    20    1
    38    19    41    1
    39    19    42    1
    40    20    21    1
    41    20    43    1
    42    20    44    1
    43    21    22    1
    44    21    45    1
    45    21    46    1
    46    22    23    1
    47    22    24    1
    48    23    47    1
    49    23    48    1
    50    23    49    1
    51    24    50    1
    52    24    51    1
    53    24    52    1
    54    25    53    1
    55    25    54    1
    56    26    27    1
@<TRIPOS>SUBSTRUCTURE
     1 ZINC000646817380        1 TEMP              0 ****  ****    0 ROOT


##########                                Name:    ZINC000426567005
##########                DOCK_Rotatable_Bonds:                   9
##########                         Heavy_Atoms:                  31
##########                    Molecular_Weight:             417.467
##########                DOCK_Rotatable_Bonds:                   9
##########                       Formal_Charge:        -2.23517e-07
##########                     HBond_Acceptors:                   8
##########                        HBond_Donors:                   4
##########                         Heavy_Atoms:                  31
##########                          Grid_Score:          -31.819262
##########                     Grid_vdw_energy:          -31.619722
##########                      Grid_es_energy:           -0.199539
##########           Internal_energy_repulsive:           14.452869

@<TRIPOS>MOLECULE
ZINC000426567005
 54 57 1 0 0
SMALL
USER_CHARGES


@<TRIPOS>ATOM
      1 O1         -3.3885    2.4848   51.3417 O.2     1  ZINC000426567005   -0.4900
      2 C2         -4.1734    2.1517   50.4776 C.2     1  ZINC000426567005    0.5200
      3 N3         -3.7712    2.0802   49.1932 N.am    1  ZINC000426567005   -0.6000
      4 C4         -2.4506    2.3956   48.8550 C.2     1  ZINC000426567005    0.3000
      5 N5         -1.5124    2.7825   49.6879 N.2     1  ZINC000426567005   -0.3100
      6 N6         -0.3387    2.9970   48.9542 N.pl3   1  ZINC000426567005   -0.4600
      7 C7         -0.6004    2.7276   47.6577 C.2     1  ZINC000426567005    0.1100
      8 C8          0.3785    2.8255   46.5161 C.3     1  ZINC000426567005   -0.0300
      9 C9          1.4454    3.9095   46.8083 C.3     1  ZINC000426567005   -0.1200
     10 C10         2.6327    3.4698   45.9160 C.3     1  ZINC000426567005   -0.1300
     11 C11         2.6239    1.9298   46.0064 C.3     1  ZINC000426567005   -0.1300
     12 C12         1.1907    1.5201   46.3879 C.3     1  ZINC000426567005   -0.1200
     13 C13        -1.8949    2.3479   47.5658 C.2     1  ZINC000426567005   -0.2600
     14 C14        -5.5820    1.8153   50.8383 C.2     1  ZINC000426567005    0.5200
     15 O15        -6.3493    1.4203   49.9848 O.2     1  ZINC000426567005   -0.4900
     16 N16        -6.0022    1.9502   52.1118 N.am    1  ZINC000426567005   -0.6400
     17 C17        -7.3167    1.6363   52.4484 C.ar    1  ZINC000426567005    0.1700
     18 C18        -8.2292    2.6546   52.7080 C.ar    1  ZINC000426567005   -0.1300
     19 C19        -9.5292    2.3477   53.0409 C.ar    1  ZINC000426567005   -0.0300
     20 C20        -9.9324    1.0117   53.1176 C.ar    1  ZINC000426567005   -0.1500
     21 C21       -11.3254    0.6790   53.4737 C.2     1  ZINC000426567005    0.5600
     22 O22       -11.7761    1.0214   54.5498 O.2     1  ZINC000426567005   -0.5100
     23 N23       -12.0980   -0.0043   52.6061 N.am    1  ZINC000426567005   -0.6700
     24 C24       -13.4180   -0.3195   52.9435 C.ar    1  ZINC000426567005    0.1400
     25 C25       -13.6782   -1.2221   53.9665 C.ar    1  ZINC000426567005   -0.1500
     26 C26       -14.9830   -1.5309   54.2978 C.ar    1  ZINC000426567005   -0.1000
     27 C27       -16.0297   -0.9425   53.6119 C.ar    1  ZINC000426567005   -0.1300
     28 C28       -15.7741   -0.0437   52.5925 C.ar    1  ZINC000426567005   -0.1000
     29 C29       -14.4717    0.2737   52.2603 C.ar    1  ZINC000426567005   -0.1200
     30 C30        -9.0138   -0.0086   52.8558 C.ar    1  ZINC000426567005   -0.0600
     31 C31        -7.7165    0.3050   52.5188 C.ar    1  ZINC000426567005   -0.1400
     32 H32        -4.3972    1.8100   48.5032 H       1  ZINC000426567005    0.4300
     33 H33         0.5135    3.2883   49.3149 H       1  ZINC000426567005    0.4400
     34 H34        -0.1439    3.0428   45.5844 H       1  ZINC000426567005    0.1100
     35 H35         1.0853    4.8953   46.5139 H       1  ZINC000426567005    0.0800
     36 H36         1.7287    3.8989   47.8608 H       1  ZINC000426567005    0.0700
     37 H37         2.4763    3.7924   44.8867 H       1  ZINC000426567005    0.0700
     38 H38         3.5698    3.8695   46.3038 H       1  ZINC000426567005    0.0700
     39 H39         2.8916    1.4977   45.0422 H       1  ZINC000426567005    0.0700
     40 H40         3.3239    1.5968   46.7726 H       1  ZINC000426567005    0.0700
     41 H41         1.1951    0.9883   47.3393 H       1  ZINC000426567005    0.0600
     42 H42         0.7627    0.8891   45.6089 H       1  ZINC000426567005    0.0700
     43 H43        -2.4119    2.0650   46.6608 H       1  ZINC000426567005    0.1700
     44 H44        -5.3891    2.2660   52.7939 H       1  ZINC000426567005    0.4300
     45 H45        -7.9170    3.6868   52.6485 H       1  ZINC000426567005    0.1500
     46 H46       -10.2365    3.1383   53.2430 H       1  ZINC000426567005    0.1400
     47 H47       -11.7384   -0.2775   51.7476 H       1  ZINC000426567005    0.4100
     48 H48       -12.8611   -1.6823   54.5024 H       1  ZINC000426567005    0.1300
     49 H49       -15.1860   -2.2330   55.0929 H       1  ZINC000426567005    0.1300
     50 H50       -17.0492   -1.1856   53.8728 H       1  ZINC000426567005    0.1200
     51 H51       -16.5938    0.4136   52.0584 H       1  ZINC000426567005    0.1300
     52 H52       -14.2726    0.9760   51.4643 H       1  ZINC000426567005    0.1300
     53 H53        -9.3222   -1.0420   52.9146 H       1  ZINC000426567005    0.1300
     54 H54        -7.0061   -0.4829   52.3163 H       1  ZINC000426567005    0.1400
@<TRIPOS>BOND
     1     1     2    2
     2     2     3   am
     3     2    14    1
     4     3     4    1
     5     3    32    1
     6     4    13    1
     7     4     5    2
     8     5     6    1
     9     6     7    1
    10     6    33    1
    11     7     8    1
    12     7    13    2
    13     8    12    1
    14     8     9    1
    15     8    34    1
    16     9    10    1
    17     9    35    1
    18     9    36    1
    19    10    11    1
    20    10    37    1
    21    10    38    1
    22    11    12    1
    23    11    39    1
    24    11    40    1
    25    12    41    1
    26    12    42    1
    27    13    43    1
    28    14    15    2
    29    14    16   am
    30    16    17    1
    31    16    44    1
    32    17    31   ar
    33    17    18   ar
    34    18    19   ar
    35    18    45    1
    36    19    20   ar
    37    19    46    1
    38    20    21    1
    39    20    30   ar
    40    21    22    2
    41    21    23   am
    42    23    24    1
    43    23    47    1
    44    24    29   ar
    45    24    25   ar
    46    25    26   ar
    47    25    48    1
    48    26    27   ar
    49    26    49    1
    50    27    28   ar
    51    27    50    1
    52    28    29   ar
    53    28    51    1
    54    29    52    1
    55    30    31   ar
    56    30    53    1
    57    31    54    1
@<TRIPOS>SUBSTRUCTURE
     1 ZINC000426567005        1 TEMP              0 ****  ****    0 ROOT


##########                                Name:    ZINC001369071670
##########                DOCK_Rotatable_Bonds:                   8
##########                         Heavy_Atoms:                  24
##########                    Molecular_Weight:             335.366
##########                DOCK_Rotatable_Bonds:                   8
##########                       Formal_Charge:        -2.90573e-07
##########                     HBond_Acceptors:                  10
##########                        HBond_Donors:                   1
##########                         Heavy_Atoms:                  24
##########                          Grid_Score:          -31.817505
##########                     Grid_vdw_energy:          -30.463026
##########                      Grid_es_energy:           -1.354480
##########           Internal_energy_repulsive:            9.656068

@<TRIPOS>MOLECULE
ZINC001369071670
 45 47 1 0 0
SMALL
USER_CHARGES


@<TRIPOS>ATOM
      1 C1        -13.1927   -1.0439   53.5353 C.3     1  ZINC001369071670   -0.0800
      2 C2        -11.7716   -0.7006   53.1695 C.2     1  ZINC001369071670    0.0000
      3 C3        -11.2908    0.5242   52.8560 C.2     1  ZINC001369071670   -0.2300
      4 C4         -9.9140    0.2957   52.5975 C.2     1  ZINC001369071670    0.2100
      5 O5         -8.9881    1.2210   52.2395 O.3     1  ZINC001369071670   -0.2600
      6 C6         -7.6517    0.7570   52.0376 C.3     1  ZINC001369071670    0.0400
      7 C7         -6.7825    1.9058   51.5953 C.2     1  ZINC001369071670    0.5200
      8 O8         -6.7575    2.2328   50.4276 O.2     1  ZINC001369071670   -0.5100
      9 N9         -6.0329    2.5699   52.4972 N.am    1  ZINC001369071670   -0.7200
     10 C10        -5.1892    3.6879   52.0674 C.3     1  ZINC001369071670    0.1500
     11 H11        -5.6294    4.1583   51.1881 H       1  ZINC001369071670    0.0900
     12 C12        -5.0875    4.7140   53.1977 C.3     1  ZINC001369071670   -0.1700
     13 C13        -3.7918    3.1690   51.7223 C.3     1  ZINC001369071670   -0.1200
     14 C14        -3.6540    2.6793   50.2695 C.3     1  ZINC001369071670    0.0100
     15 N15        -2.3426    3.3644   50.2674 N.3     1  ZINC001369071670   -0.4800
     16 C16        -2.1308    4.0921   49.0090 C.3     1  ZINC001369071670    0.1000
     17 C17        -1.7400    3.1198   47.9261 C.2     1  ZINC001369071670    0.1900
     18 N18        -2.3382    1.9904   47.6353 N.2     1  ZINC001369071670   -0.3000
     19 N19        -1.7077    1.4479   46.6514 N.2     1  ZINC001369071670   -0.0700
     20 N20        -0.7227    2.2019   46.3070 N.2     1  ZINC001369071670   -0.0900
     21 N21        -0.7123    3.2452   47.0660 N.pl3   1  ZINC001369071670   -0.3000
     22 C22         0.2440    4.3534   47.0087 C.3     1  ZINC001369071670    0.0800
     23 C23        -2.7962    4.2786   51.3387 C.3     1  ZINC001369071670    0.0200
     24 N24        -9.7166   -0.9833   52.7738 N.2     1  ZINC001369071670   -0.4100
     25 O25       -10.7356   -1.5486   53.0967 O.3     1  ZINC001369071670    0.1000
     26 H26       -13.2675   -2.1120   53.7396 H       1  ZINC001369071670    0.0900
     27 H27       -13.4850   -0.4830   54.4230 H       1  ZINC001369071670    0.1000
     28 H28       -13.8535   -0.7851   52.7080 H       1  ZINC001369071670    0.1000
     29 H29       -11.8296    1.4592   52.8124 H       1  ZINC001369071670    0.1800
     30 H30        -7.2646    0.3467   52.9704 H       1  ZINC001369071670    0.1000
     31 H31        -7.6480   -0.0177   51.2708 H       1  ZINC001369071670    0.1000
     32 H32        -6.0520    2.3077   53.4309 H       1  ZINC001369071670    0.4000
     33 H33        -6.0831    5.0836   53.4435 H       1  ZINC001369071670    0.0600
     34 H34        -4.6473    4.2437   54.0769 H       1  ZINC001369071670    0.0600
     35 H35        -4.4598    5.5458   52.8780 H       1  ZINC001369071670    0.0700
     36 H36        -3.4043    2.4683   52.4618 H       1  ZINC001369071670    0.1100
     37 H37        -3.5835    1.5956   50.1761 H       1  ZINC001369071670    0.1000
     38 H38        -4.3807    3.1198   49.5868 H       1  ZINC001369071670    0.0800
     39 H39        -3.0514    4.6018   48.7247 H       1  ZINC001369071670    0.1000
     40 H40        -1.3358    4.8257   49.1429 H       1  ZINC001369071670    0.0900
     41 H41        -0.1274    5.1192   46.3275 H       1  ZINC001369071670    0.1000
     42 H42         0.3654    4.7806   48.0041 H       1  ZINC001369071670    0.1000
     43 H43         1.2059    3.9852   46.6515 H       1  ZINC001369071670    0.1100
     44 H44        -3.2720    5.1868   50.9688 H       1  ZINC001369071670    0.0800
     45 H45        -2.0404    4.4727   52.0997 H       1  ZINC001369071670    0.1000
@<TRIPOS>BOND
     1     1     2    1
     2     1    26    1
     3     1    27    1
     4     1    28    1
     5     2    25    1
     6     2     3    2
     7     3     4    1
     8     3    29    1
     9     4     5    1
    10     4    24    2
    11     5     6    1
    12     6     7    1
    13     6    30    1
    14     6    31    1
    15     7     8    2
    16     7     9   am
    17     9    10    1
    18     9    32    1
    19    10    11    1
    20    10    12    1
    21    10    13    1
    22    12    33    1
    23    12    34    1
    24    12    35    1
    25    13    23    1
    26    13    14    1
    27    13    36    1
    28    14    15    1
    29    14    37    1
    30    14    38    1
    31    15    16    1
    32    15    23    1
    33    16    17    1
    34    16    39    1
    35    16    40    1
    36    17    21    1
    37    17    18    2
    38    18    19    1
    39    19    20    2
    40    20    21    1
    41    21    22    1
    42    22    41    1
    43    22    42    1
    44    22    43    1
    45    23    44    1
    46    23    45    1
    47    24    25    1
@<TRIPOS>SUBSTRUCTURE
     1 ZINC001369071670        1 TEMP              0 ****  ****    0 ROOT


##########                                Name:    ZINC000847397179
##########                DOCK_Rotatable_Bonds:                   9
##########                         Heavy_Atoms:                  25
##########                    Molecular_Weight:             350.461
##########                DOCK_Rotatable_Bonds:                   9
##########                       Formal_Charge:          0.00999979
##########                     HBond_Acceptors:                   7
##########                        HBond_Donors:                   2
##########                         Heavy_Atoms:                  25
##########                          Grid_Score:          -31.777561
##########                     Grid_vdw_energy:          -31.515697
##########                      Grid_es_energy:           -0.261864
##########           Internal_energy_repulsive:           86.232193

@<TRIPOS>MOLECULE
ZINC000847397179
 55 56 1 0 0
SMALL
USER_CHARGES


@<TRIPOS>ATOM
      1 C1         -7.8398    4.6839   51.6892 C.3     1  ZINC000847397179   -0.1500
      2 C2         -7.8064    3.1804   51.4080 C.3     1  ZINC000847397179   -0.1000
      3 H3         -8.6646    2.9064   50.7945 H       1  ZINC000847397179    0.0900
      4 C4         -7.8591    2.4130   52.7306 C.3     1  ZINC000847397179   -0.0200
      5 C5         -7.8164    0.9322   52.4543 C.2     1  ZINC000847397179    0.0100
      6 C6         -8.8821    0.1326   52.2589 C.2     1  ZINC000847397179   -0.0500
      7 N7         -8.3965   -1.1287   52.0417 N.pl3   1  ZINC000847397179   -0.5700
      8 C8         -7.0499   -1.0557   52.1120 C.2     1  ZINC000847397179    0.1800
      9 N9         -6.7100    0.1807   52.3541 N.2     1  ZINC000847397179   -0.4900
     10 C10        -6.5350    2.8343   50.6767 C.2     1  ZINC000847397179    0.5200
     11 O11        -6.5625    2.0545   49.7482 O.2     1  ZINC000847397179   -0.5300
     12 N12        -5.3673    3.3913   51.0545 N.am    1  ZINC000847397179   -0.7400
     13 C13        -4.1311    3.0535   50.3447 C.3     1  ZINC000847397179    0.1200
     14 C14        -3.0917    4.1513   50.5800 C.3     1  ZINC000847397179    0.1500
     15 H15        -3.4306    5.0799   50.1210 H       1  ZINC000847397179    0.0800
     16 C16        -2.8996    4.3626   52.0851 C.3     1  ZINC000847397179   -0.1300
     17 C17        -1.7619    5.3600   52.3152 C.3     1  ZINC000847397179   -0.1200
     18 C18        -0.4620    4.7959   51.7368 C.3     1  ZINC000847397179   -0.1400
     19 C19        -0.6264    4.5896   50.2278 C.3     1  ZINC000847397179    0.1100
     20 N20        -1.8082    3.7493   49.9885 N.am    1  ZINC000847397179   -0.5900
     21 C21        -1.7151    2.6292   49.2450 C.2     1  ZINC000847397179    0.6500
     22 O22        -2.6995    1.9428   49.0545 O.2     1  ZINC000847397179   -0.5500
     23 O23        -0.5313    2.2704   48.7134 O.3     1  ZINC000847397179   -0.3600
     24 C24        -0.3338    2.5414   47.3006 C.3     1  ZINC000847397179    0.1400
     25 C25        -0.3427    4.0530   47.0650 C.3     1  ZINC000847397179   -0.1800
     26 C26         1.0103    1.9634   46.8534 C.3     1  ZINC000847397179   -0.1400
     27 C27        -1.4613    1.8930   46.4946 C.3     1  ZINC000847397179   -0.1800
     28 H28        -6.9816    4.9581   52.3027 H       1  ZINC000847397179    0.0500
     29 H29        -7.8023    5.2307   50.7469 H       1  ZINC000847397179    0.0500
     30 H30        -8.7594    4.9343   52.2182 H       1  ZINC000847397179    0.1000
     31 H31        -7.0047    2.6924   53.3471 H       1  ZINC000847397179    0.0800
     32 H32        -8.7820    2.6581   53.2563 H       1  ZINC000847397179    0.0800
     33 H33        -9.9205    0.4292   52.2715 H       1  ZINC000847397179    0.1800
     34 H34        -8.9216   -1.9259   51.8695 H       1  ZINC000847397179    0.4200
     35 H35        -6.3672   -1.8829   51.9849 H       1  ZINC000847397179    0.2100
     36 H36        -5.3455    4.0158   51.7964 H       1  ZINC000847397179    0.3900
     37 H37        -3.7468    2.1036   50.7162 H       1  ZINC000847397179    0.0800
     38 H38        -4.3361    2.9701   49.2774 H       1  ZINC000847397179    0.1000
     39 H39        -3.8201    4.7545   52.5178 H       1  ZINC000847397179    0.0800
     40 H40        -2.6511    3.4120   52.5572 H       1  ZINC000847397179    0.0700
     41 H41        -1.9999    6.3024   51.8219 H       1  ZINC000847397179    0.0700
     42 H42        -1.6395    5.5308   53.3847 H       1  ZINC000847397179    0.0700
     43 H43         0.3525    5.4963   51.9216 H       1  ZINC000847397179    0.0800
     44 H44        -0.2365    3.8413   52.2121 H       1  ZINC000847397179    0.0700
     45 H45        -0.7620    5.5547   49.7396 H       1  ZINC000847397179    0.0700
     46 H46         0.2596    4.0966   49.8278 H       1  ZINC000847397179    0.0900
     47 H47         0.4604    4.5150   47.6392 H       1  ZINC000847397179    0.0600
     48 H48        -0.1946    4.2564   46.0044 H       1  ZINC000847397179    0.0700
     49 H49        -1.3004    4.4648   47.3836 H       1  ZINC000847397179    0.0900
     50 H50         1.0166    0.8864   47.0212 H       1  ZINC000847397179    0.0700
     51 H51         1.1585    2.1668   45.7928 H       1  ZINC000847397179    0.0800
     52 H52         1.8135    2.4253   47.4275 H       1  ZINC000847397179    0.0700
     53 H53        -2.4189    2.3048   46.8132 H       1  ZINC000847397179    0.0900
     54 H54        -1.3131    2.0964   45.4340 H       1  ZINC000847397179    0.0700
     55 H55        -1.4549    0.8160   46.6624 H       1  ZINC000847397179    0.0600
@<TRIPOS>BOND
     1     1     2    1
     2     1    28    1
     3     1    29    1
     4     1    30    1
     5     2     3    1
     6     2     4    1
     7     2    10    1
     8     4     5    1
     9     4    31    1
    10     4    32    1
    11     5     9    1
    12     5     6    2
    13     6     7    1
    14     6    33    1
    15     7     8    1
    16     7    34    1
    17     8     9    2
    18     8    35    1
    19    10    11    2
    20    10    12   am
    21    12    13    1
    22    12    36    1
    23    13    14    1
    24    13    37    1
    25    13    38    1
    26    14    15    1
    27    14    20    1
    28    14    16    1
    29    16    17    1
    30    16    39    1
    31    16    40    1
    32    17    18    1
    33    17    41    1
    34    17    42    1
    35    18    19    1
    36    18    43    1
    37    18    44    1
    38    19    20    1
    39    19    45    1
    40    19    46    1
    41    20    21   am
    42    21    22    2
    43    21    23    1
    44    23    24    1
    45    24    25    1
    46    24    26    1
    47    24    27    1
    48    25    47    1
    49    25    48    1
    50    25    49    1
    51    26    50    1
    52    26    51    1
    53    26    52    1
    54    27    53    1
    55    27    54    1
    56    27    55    1
@<TRIPOS>SUBSTRUCTURE
     1 ZINC000847397179        1 TEMP              0 ****  ****    0 ROOT


##########                                Name:    ZINC000433961694
##########                DOCK_Rotatable_Bonds:                   7
##########                         Heavy_Atoms:                  29
##########                    Molecular_Weight:             413.472
##########                DOCK_Rotatable_Bonds:                   7
##########                       Formal_Charge:          0.00999992
##########                     HBond_Acceptors:                   8
##########                        HBond_Donors:                   0
##########                         Heavy_Atoms:                  29
##########                          Grid_Score:          -31.769146
##########                     Grid_vdw_energy:          -30.745375
##########                      Grid_es_energy:           -1.023772
##########           Internal_energy_repulsive:           14.527741

@<TRIPOS>MOLECULE
ZINC000433961694
 49 52 1 0 0
SMALL
USER_CHARGES


@<TRIPOS>ATOM
      1 C1         -5.6054    2.3475   50.5040 C.3     1  ZINC000433961694   -0.1000
      2 C2         -4.2501    2.7584   49.9886 C.2     1  ZINC000433961694    0.1600
      3 C3         -3.5489    3.7979   50.5061 C.2     1  ZINC000433961694   -0.3000
      4 C4         -3.9748    4.6637   51.6110 C.2     1  ZINC000433961694    0.6200
      5 O5         -4.9100    5.4273   51.4599 O.2     1  ZINC000433961694   -0.5100
      6 N6         -3.3302    4.6132   52.7936 N.am    1  ZINC000433961694   -0.6100
      7 C7         -3.6516    5.4233   53.9826 C.3     1  ZINC000433961694    0.1100
      8 C8         -3.1068    4.6046   55.1795 C.3     1  ZINC000433961694   -0.1300
      9 C9         -1.8051    4.0080   54.5820 C.3     1  ZINC000433961694    0.0800
     10 H10        -0.9882    4.7272   54.6418 H       1  ZINC000433961694    0.1000
     11 O11        -1.4551    2.7919   55.2459 O.3     1  ZINC000433961694   -0.2900
     12 C12        -0.9661    2.8974   56.5077 C.ar    1  ZINC000433961694    0.1700
     13 C13        -0.7012    1.7611   57.2681 C.ar    1  ZINC000433961694   -0.2600
     14 C14        -0.2047    1.9103   58.5467 C.ar    1  ZINC000433961694    0.1400
     15 N15         0.0191    3.1097   59.0494 N.ar    1  ZINC000433961694   -0.5100
     16 C16        -0.2191    4.2095   58.3602 C.ar    1  ZINC000433961694    0.1400
     17 C17        -0.7109    4.1444   57.0727 C.ar    1  ZINC000433961694   -0.2000
     18 C18        -2.1941    3.7366   53.1135 C.3     1  ZINC000433961694    0.0600
     19 S19        -2.0346    3.9215   49.6136 S.3     1  ZINC000433961694    0.2100
     20 C20        -2.4844    2.5851   48.6471 C.2     1  ZINC000433961694    0.0400
     21 C21        -1.6451    2.0043   47.5383 C.3     1  ZINC000433961694    0.1400
     22 O22        -0.2715    2.3302   47.7598 O.3     1  ZINC000433961694   -0.3000
     23 C23         0.3720    2.9994   46.7667 C.ar    1  ZINC000433961694    0.1200
     24 C24         0.0051    4.3003   46.4554 C.ar    1  ZINC000433961694   -0.1800
     25 C25         0.6598    4.9792   45.4460 C.ar    1  ZINC000433961694   -0.1100
     26 C26         1.6814    4.3614   44.7448 C.ar    1  ZINC000433961694    0.0600
     27 F27         2.3206    5.0262   43.7575 F       1  ZINC000433961694   -0.1400
     28 C28         2.0490    3.0630   45.0548 C.ar    1  ZINC000433961694   -0.1100
     29 C29         1.3998    2.3838   46.0676 C.ar    1  ZINC000433961694   -0.1200
     30 N30        -3.6452    2.1393   49.0060 N.2     1  ZINC000433961694   -0.4500
     31 H31        -5.4838    1.6156   51.3025 H       1  ZINC000433961694    0.0800
     32 H32        -6.1280    3.2228   50.8898 H       1  ZINC000433961694    0.1000
     33 H33        -6.1845    1.9070   49.6924 H       1  ZINC000433961694    0.0800
     34 H34        -3.1542    6.3917   53.9277 H       1  ZINC000433961694    0.0800
     35 H35        -4.7300    5.5544   54.0722 H       1  ZINC000433961694    0.1000
     36 H36        -2.8862    5.2524   56.0279 H       1  ZINC000433961694    0.1000
     37 H37        -3.8038    3.8160   55.4630 H       1  ZINC000433961694    0.1000
     38 H38        -0.8825    0.7766   56.8626 H       1  ZINC000433961694    0.1400
     39 H39         0.0032    1.0346   59.1436 H       1  ZINC000433961694    0.1600
     40 H40        -0.0226    5.1725   58.8079 H       1  ZINC000433961694    0.1700
     41 H41        -0.9035    5.0483   56.5139 H       1  ZINC000433961694    0.1400
     42 H42        -2.4803    2.6918   52.9928 H       1  ZINC000433961694    0.0900
     43 H43        -1.3552    3.9714   52.4584 H       1  ZINC000433961694    0.0800
     44 H44        -1.7634    0.9208   47.5225 H       1  ZINC000433961694    0.0900
     45 H45        -1.9675    2.4189   46.5832 H       1  ZINC000433961694    0.1000
     46 H46        -0.7922    4.7822   47.0017 H       1  ZINC000433961694    0.1400
     47 H47         0.3744    5.9921   45.2033 H       1  ZINC000433961694    0.1400
     48 H48         2.8462    2.5824   44.5073 H       1  ZINC000433961694    0.1500
     49 H49         1.6866    1.3711   46.3094 H       1  ZINC000433961694    0.1400
@<TRIPOS>BOND
     1     1     2    1
     2     1    31    1
     3     1    32    1
     4     1    33    1
     5     2    30    1
     6     2     3    2
     7     3     4    1
     8     3    19    1
     9     4     5    2
    10     4     6   am
    11     6    18    1
    12     6     7    1
    13     7     8    1
    14     7    34    1
    15     7    35    1
    16     8     9    1
    17     8    36    1
    18     8    37    1
    19     9    10    1
    20     9    11    1
    21     9    18    1
    22    11    12    1
    23    12    17   ar
    24    12    13   ar
    25    13    14   ar
    26    13    38    1
    27    14    15   ar
    28    14    39    1
    29    15    16   ar
    30    16    17   ar
    31    16    40    1
    32    17    41    1
    33    18    42    1
    34    18    43    1
    35    19    20    1
    36    20    21    1
    37    20    30    2
    38    21    22    1
    39    21    44    1
    40    21    45    1
    41    22    23    1
    42    23    29   ar
    43    23    24   ar
    44    24    25   ar
    45    24    46    1
    46    25    26   ar
    47    25    47    1
    48    26    27    1
    49    26    28   ar
    50    28    29   ar
    51    28    48    1
    52    29    49    1
@<TRIPOS>SUBSTRUCTURE
     1 ZINC000433961694        1 TEMP              0 ****  ****    0 ROOT


##########                                Name:     oleObject17.pdb
##########                DOCK_Rotatable_Bonds:                   8
##########                         Heavy_Atoms:                  29
##########                    Molecular_Weight:             435.393
##########                DOCK_Rotatable_Bonds:                   8
##########                       Formal_Charge:         0.000400059
##########                     HBond_Acceptors:                   6
##########                        HBond_Donors:                   0
##########                         Heavy_Atoms:                  29
##########                          Grid_Score:          -31.759325
##########                     Grid_vdw_energy:          -30.267372
##########                      Grid_es_energy:           -1.491953
##########           Internal_energy_repulsive:           20.332039

@<TRIPOS>MOLECULE
oleObject17.pdb
 57 59 1 0 0
SMALL
NO_CHARGES


@<TRIPOS>ATOM
      1 C           0.3130    1.2603   60.2531 C.3     1  UNL         0.0391
      2 C           0.1713    1.2156   61.7761 C.ar    1  UNL        -0.0277
      3 C           0.4947    0.0685   62.5439 C.ar    1  UNL        -0.0463
      4 C           0.3064    0.0941   63.9399 C.ar    1  UNL        -0.0590
      5 C          -0.1928    1.2401   64.5757 C.ar    1  UNL        -0.0620
      6 C          -0.4962    2.3805   63.8204 C.ar    1  UNL        -0.0619
      7 C          -0.3089    2.3672   62.4303 C.ar    1  UNL        -0.0572
      8 C           1.0506   -1.2022   61.9104 C.3     1  UNL        -0.0394
      9 N           1.1793    2.3663   59.7920 N.am    1  UNL        -0.3003
     10 C           0.6612    3.4199   59.0392 C.2     1  UNL         0.2175
     11 O           1.4137    4.1443   58.4101 O.2     1  UNL        -0.2772
     12 C          -0.8558    3.3653   58.7179 C.3     1  UNL         0.0384
     13 C          -1.1901    2.3727   57.5758 C.3     1  UNL        -0.0289
     14 C          -0.6703    2.8818   56.2173 C.3     1  UNL        -0.0010
     15 N          -1.2143    4.2171   55.8861 N.4     1  UNL        -0.3010
     16 C          -1.0128    5.2404   56.9386 C.3     1  UNL        -0.0010
     17 C          -1.4460    4.7529   58.3453 C.3     1  UNL        -0.0289
     18 C          -0.8489    4.6787   54.5273 C.3     1  UNL         0.0222
     19 C          -1.1594    3.6472   53.4178 C.3     1  UNL         0.0661
     20 O          -1.5845    4.3589   52.2434 O.3     1  UNL        -0.3432
     21 C          -1.5916    3.7900   50.9841 C.ar    1  UNL         0.0937
     22 C          -0.3975    3.4614   50.3067 C.ar    1  UNL        -0.0288
     23 C          -0.4463    2.8765   49.0306 C.ar    1  UNL        -0.0408
     24 C          -1.6850    2.6190   48.4226 C.ar    1  UNL         0.0422
     25 C          -2.8769    2.9465   49.0878 C.ar    1  UNL        -0.0221
     26 C          -2.8311    3.5309   50.3646 C.ar    1  UNL         0.0723
     27 CL         -4.3385    3.9225   51.1708 Cl      1  UNL        -0.0814
     28 CL         -1.7428    1.8892   46.8324 Cl      1  UNL        -0.0843
     29 C           2.6022    2.2768   60.1675 C.3     1  UNL         0.0031
     30 H          -0.6640    1.3644   59.7682 H       1  UNL         0.0520
     31 H           0.7282    0.3016   59.9178 H       1  UNL         0.0520
     32 H           0.5468   -0.7795   64.5390 H       1  UNL         0.0626
     33 H          -0.3372    1.2458   65.6524 H       1  UNL         0.0623
     34 H          -0.8774    3.2720   64.3099 H       1  UNL         0.0623
     35 H          -0.5517    3.2554   61.8544 H       1  UNL         0.0626
     36 H           1.9441   -0.9883   61.3110 H       1  UNL         0.0280
     37 H           0.3088   -1.6799   61.2604 H       1  UNL         0.0280
     38 H           1.3414   -1.9395   62.6688 H       1  UNL         0.0280
     39 H          -1.3668    3.0276   59.6274 H       1  UNL         0.0402
     40 H          -2.2789    2.2469   57.5139 H       1  UNL         0.0288
     41 H          -0.7775    1.3792   57.7801 H       1  UNL         0.0288
     42 H          -0.9481    2.1610   55.4376 H       1  UNL         0.0431
     43 H           0.4240    2.9228   56.2597 H       1  UNL         0.0431
     44 H          -1.5845    6.1431   56.6882 H       1  UNL         0.0431
     45 H           0.0433    5.5300   56.9756 H       1  UNL         0.0431
     46 H          -2.5415    4.6861   58.3655 H       1  UNL         0.0288
     47 H          -1.1662    5.4985   59.1005 H       1  UNL         0.0288
     48 H           0.2220    4.9171   54.4969 H       1  UNL         0.0455
     49 H          -1.3932    5.6050   54.3029 H       1  UNL         0.0455
     50 H          -1.9601    2.9745   53.7461 H       1  UNL         0.0586
     51 H          -0.2647    3.0529   53.1962 H       1  UNL         0.0586
     52 H           0.5712    3.6547   50.7557 H       1  UNL         0.0651
     53 H           0.4759    2.6248   48.5145 H       1  UNL         0.0639
     54 H          -3.8348    2.7472   48.6159 H       1  UNL         0.0655
     55 H           2.9257    1.2283   60.1821 H       1  UNL         0.0433
     56 H           2.7573    2.7101   61.1629 H       1  UNL         0.0433
     57 H           3.2212    2.8137   59.4382 H       1  UNL         0.0433
@<TRIPOS>BOND
     1     1     2    1
     2     1     9    1
     3     1    30    1
     4     1    31    1
     5     2     3   ar
     6     2     7   ar
     7     3     4   ar
     8     3     8    1
     9     4     5   ar
    10     4    32    1
    11     5     6   ar
    12     5    33    1
    13     6     7   ar
    14     6    34    1
    15     7    35    1
    16     8    36    1
    17     8    37    1
    18     8    38    1
    19     9    10   am
    20     9    29    1
    21    10    11    2
    22    10    12    1
    23    12    13    1
    24    12    17    1
    25    12    39    1
    26    13    14    1
    27    13    40    1
    28    13    41    1
    29    14    15    1
    30    14    42    1
    31    14    43    1
    32    15    16    1
    33    15    18    1
    34    16    17    1
    35    16    44    1
    36    16    45    1
    37    17    46    1
    38    17    47    1
    39    18    19    1
    40    18    48    1
    41    18    49    1
    42    19    20    1
    43    19    50    1
    44    19    51    1
    45    20    21    1
    46    21    22   ar
    47    21    26   ar
    48    22    23   ar
    49    22    52    1
    50    23    24   ar
    51    23    53    1
    52    24    25   ar
    53    24    28    1
    54    25    26   ar
    55    25    54    1
    56    26    27    1
    57    29    55    1
    58    29    56    1
    59    29    57    1
@<TRIPOS>SUBSTRUCTURE
     1 UNL         1 TEMP              0 ****  ****    0 ROOT


##########                                Name:    ZINC000826435081
##########                DOCK_Rotatable_Bonds:                   7
##########                         Heavy_Atoms:                  28
##########                    Molecular_Weight:             388.361
##########                DOCK_Rotatable_Bonds:                   7
##########                       Formal_Charge:           0.0099996
##########                     HBond_Acceptors:                  12
##########                        HBond_Donors:                   3
##########                         Heavy_Atoms:                  28
##########                          Grid_Score:          -31.738396
##########                     Grid_vdw_energy:          -30.954144
##########                      Grid_es_energy:           -0.784251
##########           Internal_energy_repulsive:           15.062766

@<TRIPOS>MOLECULE
ZINC000826435081
 45 48 1 0 0
SMALL
USER_CHARGES


@<TRIPOS>ATOM
      1 O1         -1.5656    3.0516   55.1694 O.2     1  ZINC000826435081   -0.5700
      2 C2         -2.4060    3.5628   55.8842 C.2     1  ZINC000826435081    0.7200
      3 N3         -2.3170    3.4394   57.2234 N.am    1  ZINC000826435081   -0.7300
      4 C4         -1.2113    2.6843   57.8176 C.3     1  ZINC000826435081    0.1500
      5 C5         -1.0577    3.0768   59.2883 C.3     1  ZINC000826435081    0.0400
      6 H6         -1.9797    2.8506   59.8239 H       1  ZINC000826435081    0.0800
      7 C7         -0.7616    4.5760   59.3897 C.3     1  ZINC000826435081    0.0300
      8 O8         -0.5092    4.9131   60.7571 O.3     1  ZINC000826435081   -0.3800
      9 C9          0.5743    4.1804   61.3370 C.3     1  ZINC000826435081    0.0200
     10 C10         0.2781    2.6813   61.2356 C.3     1  ZINC000826435081    0.0200
     11 O11         0.0247    2.3430   59.8687 O.3     1  ZINC000826435081   -0.3700
     12 N12        -3.4233    4.2576   55.3376 N.am    1  ZINC000826435081   -0.6400
     13 C13        -3.5159    4.3858   53.9454 C.2     1  ZINC000826435081    0.3300
     14 N14        -2.6920    3.8627   53.0680 N.2     1  ZINC000826435081   -0.2800
     15 N15        -3.1302    4.2224   51.7871 N.pl3   1  ZINC000826435081   -0.3300
     16 C16        -2.5233    3.8634   50.5784 C.ar    1  ZINC000826435081    0.2200
     17 C17        -1.3323    4.4605   50.1932 C.ar    1  ZINC000826435081   -0.1300
     18 C18        -0.7334    4.1056   48.9994 C.ar    1  ZINC000826435081   -0.0500
     19 C19        -1.3159    3.1548   48.1811 C.ar    1  ZINC000826435081   -0.1500
     20 C20        -2.5035    2.5505   48.5515 C.ar    1  ZINC000826435081    0.1500
     21 F21        -3.0690    1.6220   47.7496 F       1  ZINC000826435081   -0.1100
     22 C22        -3.1129    2.8966   49.7568 C.ar    1  ZINC000826435081   -0.0500
     23 C23        -4.3869    2.2522   50.1600 C.2     1  ZINC000826435081    0.2100
     24 N24        -4.5998    1.5420   51.2503 N.2     1  ZINC000826435081   -0.2800
     25 N25        -5.8296    1.1573   51.2363 N.pl3   1  ZINC000826435081   -0.2300
     26 N26        -6.4027    1.6009   50.1724 N.2     1  ZINC000826435081   -0.0500
     27 N27        -5.5476    2.2834   49.4894 N.2     1  ZINC000826435081   -0.2300
     28 C28        -4.2479    4.9812   51.9254 C.2     1  ZINC000826435081    0.0700
     29 C29        -4.5100    5.0915   53.2476 C.2     1  ZINC000826435081   -0.2400
     30 H30        -2.9852    3.8507   57.7938 H       1  ZINC000826435081    0.4000
     31 H31        -1.4206    1.6169   57.7464 H       1  ZINC000826435081    0.0800
     32 H32        -0.2885    2.9099   57.2830 H       1  ZINC000826435081    0.0900
     33 H33         0.1148    4.8157   58.7877 H       1  ZINC000826435081    0.0700
     34 H34        -1.6196    5.1421   59.0273 H       1  ZINC000826435081    0.1100
     35 H35         1.4956    4.4067   60.8004 H       1  ZINC000826435081    0.0600
     36 H36         0.6836    4.4600   62.3848 H       1  ZINC000826435081    0.1100
     37 H37         1.1361    2.1151   61.5980 H       1  ZINC000826435081    0.1100
     38 H38        -0.5983    2.4416   61.8376 H       1  ZINC000826435081    0.0600
     39 H39        -4.0915    4.6688   55.9079 H       1  ZINC000826435081    0.4100
     40 H40        -0.8724    5.2042   50.8271 H       1  ZINC000826435081    0.1500
     41 H41         0.1941    4.5735   48.7038 H       1  ZINC000826435081    0.1500
     42 H42        -0.8418    2.8836   47.2493 H       1  ZINC000826435081    0.1500
     43 H43        -6.2566    0.6181   51.9203 H       1  ZINC000826435081    0.4800
     44 H44        -4.8268    5.4149   51.1233 H       1  ZINC000826435081    0.1800
     45 H45        -5.3336    5.6328   53.6892 H       1  ZINC000826435081    0.1800
@<TRIPOS>BOND
     1     1     2    2
     2     2     3   am
     3     2    12   am
     4     3     4    1
     5     3    30    1
     6     4     5    1
     7     4    31    1
     8     4    32    1
     9     5     6    1
    10     5    11    1
    11     5     7    1
    12     7     8    1
    13     7    33    1
    14     7    34    1
    15     8     9    1
    16     9    10    1
    17     9    35    1
    18     9    36    1
    19    10    11    1
    20    10    37    1
    21    10    38    1
    22    12    13    1
    23    12    39    1
    24    13    29    1
    25    13    14    2
    26    14    15    1
    27    15    16    1
    28    15    28    1
    29    16    22   ar
    30    16    17   ar
    31    17    18   ar
    32    17    40    1
    33    18    19   ar
    34    18    41    1
    35    19    20   ar
    36    19    42    1
    37    20    21    1
    38    20    22   ar
    39    22    23    1
    40    23    27    1
    41    23    24    2
    42    24    25    1
    43    25    26    1
    44    25    43    1
    45    26    27    2
    46    28    29    2
    47    28    44    1
    48    29    45    1
@<TRIPOS>SUBSTRUCTURE
     1 ZINC000826435081        1 TEMP              0 ****  ****    0 ROOT


##########                                Name:    ZINC001408567397
##########                DOCK_Rotatable_Bonds:                   9
##########                         Heavy_Atoms:                  24
##########                    Molecular_Weight:             336.434
##########                DOCK_Rotatable_Bonds:                   9
##########                       Formal_Charge:          -0.0199996
##########                     HBond_Acceptors:                   7
##########                        HBond_Donors:                   2
##########                         Heavy_Atoms:                  24
##########                          Grid_Score:          -31.717445
##########                     Grid_vdw_energy:          -28.605740
##########                      Grid_es_energy:           -3.111705
##########           Internal_energy_repulsive:           21.518215

@<TRIPOS>MOLECULE
ZINC001408567397
 52 53 1 0 0
SMALL
USER_CHARGES


@<TRIPOS>ATOM
      1 C1         -1.2883    2.7494   47.6931 C.3     1  ZINC001408567397   -0.0800
      2 C2         -0.9826    2.7971   49.1681 C.2     1  ZINC001408567397    0.0900
      3 N3          0.1281    2.4004   49.7345 N.2     1  ZINC001408567397   -0.2900
      4 N4          0.0153    2.6122   51.1146 N.pl3   1  ZINC001408567397   -0.4700
      5 C5         -1.1995    3.1486   51.3548 C.2     1  ZINC001408567397    0.1100
      6 C6         -1.7478    3.5386   52.7031 C.3     1  ZINC001408567397   -0.1000
      7 C7         -1.8349    3.2786   50.1671 C.2     1  ZINC001408567397   -0.2200
      8 C8         -3.2195    3.8356   49.9588 C.3     1  ZINC001408567397   -0.0600
      9 C9         -4.2173    2.7063   49.9377 C.2     1  ZINC001408567397    0.5100
     10 O10        -3.9664    1.6867   49.3309 O.2     1  ZINC001408567397   -0.5300
     11 N11        -5.3884    2.8295   50.5934 N.am    1  ZINC001408567397   -0.7300
     12 C12        -6.3576    1.7311   50.5744 C.3     1  ZINC001408567397    0.1100
     13 C13        -6.7055    1.3331   52.0101 C.3     1  ZINC001408567397    0.1000
     14 N14        -7.5055    0.1058   51.9964 N.am    1  ZINC001408567397   -0.6200
     15 C15        -6.9050   -1.1550   51.5535 C.3     1  ZINC001408567397    0.0700
     16 C16        -8.7937    0.1366   52.3912 C.2     1  ZINC001408567397    0.5100
     17 O17        -9.4554   -0.8797   52.3813 O.2     1  ZINC001408567397   -0.5300
     18 C18        -9.4119    1.4338   52.8452 C.3     1  ZINC001408567397   -0.1300
     19 C19       -10.8614    1.1875   53.2685 C.3     1  ZINC001408567397   -0.1100
     20 H20       -11.3706    0.6039   52.5014 H       1  ZINC001408567397    0.0900
     21 C21       -10.8843    0.4209   54.5943 C.3     1  ZINC001408567397   -0.1200
     22 C22       -12.3375    0.2485   55.0468 C.3     1  ZINC001408567397   -0.1600
     23 C23       -12.9952    1.6262   55.1608 C.3     1  ZINC001408567397    0.0600
     24 O24       -12.9122    2.2979   53.9021 O.3     1  ZINC001408567397   -0.3800
     25 C25       -11.5765    2.5289   53.4496 C.3     1  ZINC001408567397    0.0600
     26 H26        -0.9633    3.6783   47.2245 H       1  ZINC001408567397    0.0800
     27 H27        -0.7612    1.9099   47.2397 H       1  ZINC001408567397    0.0700
     28 H28        -2.3616    2.6255   47.5484 H       1  ZINC001408567397    0.0800
     29 H29         0.6912    2.4091   51.7802 H       1  ZINC001408567397    0.4400
     30 H30        -1.4857    4.5749   52.9161 H       1  ZINC001408567397    0.0800
     31 H31        -2.8325    3.4316   52.6991 H       1  ZINC001408567397    0.0900
     32 H32        -1.3217    2.8912   53.4697 H       1  ZINC001408567397    0.0700
     33 H33        -3.4622    4.5196   50.7719 H       1  ZINC001408567397    0.1000
     34 H34        -3.2569    4.3710   49.0101 H       1  ZINC001408567397    0.1000
     35 H35        -5.5896    3.6455   51.0777 H       1  ZINC001408567397    0.4000
     36 H36        -7.2616    2.0530   50.0574 H       1  ZINC001408567397    0.0700
     37 H37        -5.9269    0.8754   50.0543 H       1  ZINC001408567397    0.0700
     38 H38        -5.7875    1.1621   52.5723 H       1  ZINC001408567397    0.0800
     39 H39        -7.2763    2.1334   52.4809 H       1  ZINC001408567397    0.0900
     40 H40        -6.4652   -1.6682   52.4085 H       1  ZINC001408567397    0.0600
     41 H41        -7.6733   -1.7862   51.1068 H       1  ZINC001408567397    0.0800
     42 H42        -6.1300   -0.9488   50.8153 H       1  ZINC001408567397    0.0800
     43 H43        -8.8485    1.8286   53.6906 H       1  ZINC001408567397    0.1000
     44 H44        -9.3898    2.1529   52.0263 H       1  ZINC001408567397    0.1000
     45 H45       -10.4265   -0.5587   54.4571 H       1  ZINC001408567397    0.0700
     46 H46       -10.3316    0.9806   55.3488 H       1  ZINC001408567397    0.0600
     47 H47       -12.8776   -0.3535   54.3159 H       1  ZINC001408567397    0.0700
     48 H48       -12.3606   -0.2476   56.0171 H       1  ZINC001408567397    0.0700
     49 H49       -14.0418    1.5073   55.4411 H       1  ZINC001408567397    0.0900
     50 H50       -12.4796    2.2133   55.9207 H       1  ZINC001408567397    0.0500
     51 H51       -11.0415    3.1278   54.1866 H       1  ZINC001408567397    0.0400
     52 H52       -11.6018    3.0605   52.4983 H       1  ZINC001408567397    0.1100
@<TRIPOS>BOND
     1     1     2    1
     2     1    26    1
     3     1    27    1
     4     1    28    1
     5     2     7    1
     6     2     3    2
     7     3     4    1
     8     4     5    1
     9     4    29    1
    10     5     6    1
    11     5     7    2
    12     6    30    1
    13     6    31    1
    14     6    32    1
    15     7     8    1
    16     8     9    1
    17     8    33    1
    18     8    34    1
    19     9    10    2
    20     9    11   am
    21    11    12    1
    22    11    35    1
    23    12    13    1
    24    12    36    1
    25    12    37    1
    26    13    14    1
    27    13    38    1
    28    13    39    1
    29    14    15    1
    30    14    16   am
    31    15    40    1
    32    15    41    1
    33    15    42    1
    34    16    17    2
    35    16    18    1
    36    18    19    1
    37    18    43    1
    38    18    44    1
    39    19    20    1
    40    19    25    1
    41    19    21    1
    42    21    22    1
    43    21    45    1
    44    21    46    1
    45    22    23    1
    46    22    47    1
    47    22    48    1
    48    23    24    1
    49    23    49    1
    50    23    50    1
    51    24    25    1
    52    25    51    1
    53    25    52    1
@<TRIPOS>SUBSTRUCTURE
     1 ZINC001408567397        1 TEMP              0 ****  ****    0 ROOT


##########                                Name:    ZINC000050607728
##########                DOCK_Rotatable_Bonds:                  10
##########                         Heavy_Atoms:                  31
##########                    Molecular_Weight:             416.476
##########                DOCK_Rotatable_Bonds:                  10
##########                       Formal_Charge:          -0.0199995
##########                     HBond_Acceptors:                   6
##########                        HBond_Donors:                   1
##########                         Heavy_Atoms:                  31
##########                          Grid_Score:          -31.713970
##########                     Grid_vdw_energy:          -30.906364
##########                      Grid_es_energy:           -0.807607
##########           Internal_energy_repulsive:           16.495445

@<TRIPOS>MOLECULE
ZINC000050607728
 55 57 1 0 0
SMALL
USER_CHARGES


@<TRIPOS>ATOM
      1 C1         -0.8991    2.6944   49.3076 C.3     1  ZINC000050607728    0.0800
      2 N2         -2.0568    2.8450   50.1927 N.am    1  ZINC000050607728   -0.6200
      3 C3         -1.8622    3.2177   51.5961 C.3     1  ZINC000050607728    0.0700
      4 C4         -3.3007    2.6407   49.7160 C.2     1  ZINC000050607728    0.5600
      5 O5         -3.4622    2.3315   48.5516 O.2     1  ZINC000050607728   -0.5300
      6 C6         -4.4689    2.7927   50.6092 C.ar    1  ZINC000050607728   -0.1400
      7 C7         -4.8769    4.0627   51.0195 C.ar    1  ZINC000050607728   -0.0800
      8 C8         -5.9683    4.1977   51.8528 C.ar    1  ZINC000050607728   -0.1300
      9 C9         -6.6574    3.0776   52.2819 C.ar    1  ZINC000050607728   -0.0700
     10 C10        -6.2579    1.8154   51.8792 C.ar    1  ZINC000050607728   -0.1100
     11 C11        -7.0142    0.6007   52.3520 C.3     1  ZINC000050607728    0.1100
     12 O12        -8.3595    0.9879   52.7375 O.3     1  ZINC000050607728   -0.3400
     13 C13        -9.3256    0.0688   52.5845 C.2     1  ZINC000050607728    0.4700
     14 O14        -9.0762   -0.9871   52.0527 O.2     1  ZINC000050607728   -0.5000
     15 C15       -10.7214    0.3538   53.0759 C.3     1  ZINC000050607728    0.2000
     16 H16       -10.7801    1.3845   53.4257 H       1  ZINC000050607728    0.1400
     17 N17       -11.6747    0.1545   51.9814 N.am    1  ZINC000050607728   -0.7100
     18 C18       -12.9868    0.3904   52.1793 C.2     1  ZINC000050607728    0.5700
     19 O19       -13.3791    0.7700   53.2653 O.2     1  ZINC000050607728   -0.5200
     20 C20       -13.9490    0.1876   51.0752 C.ar    1  ZINC000050607728   -0.1400
     21 C21       -15.3103    0.4175   51.2808 C.ar    1  ZINC000050607728   -0.0800
     22 C22       -16.2028    0.2268   50.2462 C.ar    1  ZINC000050607728   -0.1300
     23 C23       -15.7512   -0.1916   49.0072 C.ar    1  ZINC000050607728   -0.0900
     24 C24       -14.4032   -0.4217   48.7969 C.ar    1  ZINC000050607728   -0.1300
     25 C25       -13.4994   -0.2289   49.8213 C.ar    1  ZINC000050607728   -0.0600
     26 C26       -11.0556   -0.5811   54.2096 C.ar    1  ZINC000050607728   -0.1000
     27 C27       -11.0640   -0.1145   55.5107 C.ar    1  ZINC000050607728   -0.1000
     28 C28       -11.3706   -0.9721   56.5506 C.ar    1  ZINC000050607728   -0.1200
     29 C29       -11.6691   -2.2962   56.2894 C.ar    1  ZINC000050607728   -0.1100
     30 C30       -11.6615   -2.7627   54.9881 C.ar    1  ZINC000050607728   -0.1200
     31 C31       -11.3592   -1.9041   53.9478 C.ar    1  ZINC000050607728   -0.0800
     32 C32        -5.1723    1.6670   51.0413 C.ar    1  ZINC000050607728   -0.0400
     33 H33        -0.5465    1.6635   49.3428 H       1  ZINC000050607728    0.0600
     34 H34        -1.1873    2.9451   48.2867 H       1  ZINC000050607728    0.0800
     35 H35        -0.1023    3.3622   49.6347 H       1  ZINC000050607728    0.0700
     36 H36        -1.7944    4.3025   51.6779 H       1  ZINC000050607728    0.0600
     37 H37        -2.7057    2.8608   52.1871 H       1  ZINC000050607728    0.0800
     38 H38        -0.9418    2.7671   51.9675 H       1  ZINC000050607728    0.0700
     39 H39        -4.3393    4.9380   50.6857 H       1  ZINC000050607728    0.1400
     40 H40        -6.2851    5.1800   52.1711 H       1  ZINC000050607728    0.1400
     41 H41        -7.5108    3.1886   52.9345 H       1  ZINC000050607728    0.1300
     42 H42        -7.0637   -0.1326   51.5471 H       1  ZINC000050607728    0.0900
     43 H43        -6.5018    0.1648   53.2097 H       1  ZINC000050607728    0.0900
     44 H44       -11.3615   -0.1472   51.1144 H       1  ZINC000050607728    0.4100
     45 H45       -15.6642    0.7435   52.2477 H       1  ZINC000050607728    0.1300
     46 H46       -17.2564    0.4043   50.4039 H       1  ZINC000050607728    0.1300
     47 H47       -16.4541   -0.3397   48.2007 H       1  ZINC000050607728    0.1300
     48 H48       -14.0571   -0.7486   47.8275 H       1  ZINC000050607728    0.1300
     49 H49       -12.4474   -0.4085   49.6557 H       1  ZINC000050607728    0.1400
     50 H50       -10.8309    0.9201   55.7148 H       1  ZINC000050607728    0.1200
     51 H51       -11.3765   -0.6076   57.5673 H       1  ZINC000050607728    0.1200
     52 H52       -11.9079   -2.9664   57.1019 H       1  ZINC000050607728    0.1200
     53 H53       -11.8945   -3.7974   54.7840 H       1  ZINC000050607728    0.1300
     54 H54       -11.3532   -2.2686   52.9312 H       1  ZINC000050607728    0.1300
     55 H55        -4.8616    0.6814   50.7274 H       1  ZINC000050607728    0.1300
@<TRIPOS>BOND
     1     1     2    1
     2     1    33    1
     3     1    34    1
     4     1    35    1
     5     2     3    1
     6     2     4   am
     7     3    36    1
     8     3    37    1
     9     3    38    1
    10     4     5    2
    11     4     6    1
    12     6    32   ar
    13     6     7   ar
    14     7     8   ar
    15     7    39    1
    16     8     9   ar
    17     8    40    1
    18     9    10   ar
    19     9    41    1
    20    10    11    1
    21    10    32   ar
    22    11    12    1
    23    11    42    1
    24    11    43    1
    25    12    13    1
    26    13    14    2
    27    13    15    1
    28    15    16    1
    29    15    17    1
    30    15    26    1
    31    17    18   am
    32    17    44    1
    33    18    19    2
    34    18    20    1
    35    20    25   ar
    36    20    21   ar
    37    21    22   ar
    38    21    45    1
    39    22    23   ar
    40    22    46    1
    41    23    24   ar
    42    23    47    1
    43    24    25   ar
    44    24    48    1
    45    25    49    1
    46    26    31   ar
    47    26    27   ar
    48    27    28   ar
    49    27    50    1
    50    28    29   ar
    51    28    51    1
    52    29    30   ar
    53    29    52    1
    54    30    31   ar
    55    30    53    1
    56    31    54    1
    57    32    55    1
@<TRIPOS>SUBSTRUCTURE
     1 ZINC000050607728        1 TEMP              0 ****  ****    0 ROOT


##########                                Name:    ZINC000011972961
##########                DOCK_Rotatable_Bonds:                   6
##########                         Heavy_Atoms:                  28
##########                    Molecular_Weight:             397.501
##########                DOCK_Rotatable_Bonds:                   6
##########                       Formal_Charge:                   0
##########                     HBond_Acceptors:                   8
##########                        HBond_Donors:                   1
##########                         Heavy_Atoms:                  28
##########                          Grid_Score:          -31.705133
##########                     Grid_vdw_energy:          -31.705133
##########                      Grid_es_energy:            0.000000
##########           Internal_energy_repulsive:           22.069359

@<TRIPOS>MOLECULE
ZINC000011972961
 51 54 1 0 0
SMALL
USER_CHARGES


@<TRIPOS>ATOM
      1 C1          0.5315    3.9600   50.8280 C.3              0.0000
      2 C2         -0.3533    3.3035   49.7998 C.2              0.0000
      3 C3          0.0959    2.9585   48.5864 C.2              0.0000
      4 C4          1.4696    3.1690   48.1136 C.2              0.0000
      5 O5          1.7629    4.1987   47.5353 O.2              0.0000
      6 N6          2.4059    2.2219   48.3199 N.am             0.0000
      7 C7          3.7769    2.4320   47.8479 C.3              0.0000
      8 C8          2.0529    0.9822   49.0161 C.3              0.0000
      9 H9          1.0936    1.0899   49.5224 H                0.0000
     10 C10         2.0108   -0.2043   48.0224 C.3              0.0000
     11 C11         3.4057   -0.8485   48.2269 C.3              0.0000
     12 O12         3.6379   -0.7061   49.6448 O.3              0.0000
     13 C13         3.1539    0.5967   50.0230 C.3              0.0000
     14 S14        -1.1840    2.2194   47.6395 S.3              0.0000
     15 C15        -2.3332    2.4036   48.9577 C.ar             0.0000
     16 N16        -3.6249    2.0695   49.0565 N.ar             0.0000
     17 C17        -4.3035    2.3036   50.1564 C.ar             0.0000
     18 N18        -3.7554    2.8749   51.2133 N.ar             0.0000
     19 C19        -2.4831    3.2425   51.2145 C.ar             0.0000
     20 N20        -1.9265    3.8383   52.3280 N.pl3            0.0000
     21 C21        -2.7886    4.3088   53.4151 C.3              0.0000
     22 C22        -2.2700    3.7857   54.7297 C.ar             0.0000
     23 N23        -1.0065    3.4235   54.8342 N.ar             0.0000
     24 C24        -0.5089    2.9607   55.9645 C.ar             0.0000
     25 C25         0.9425    2.5606   56.0308 C.3              0.0000
     26 C26        -1.3029    2.8387   57.0888 C.ar             0.0000
     27 C27        -2.6372    3.2096   57.0173 C.ar             0.0000
     28 C28        -3.1231    3.6962   55.8136 C.ar             0.0000
     29 C29        -1.6973    3.0082   50.0508 C.ar             0.0000
     30 H30         0.7070    3.2677   51.6515 H                0.0000
     31 H31         1.4834    4.2286   50.3700 H                0.0000
     32 H32         0.0439    4.8585   51.2064 H                0.0000
     33 H33         4.2264    3.2607   48.3948 H                0.0000
     34 H34         4.3612    1.5271   48.0146 H                0.0000
     35 H35         3.7629    2.6644   46.7830 H                0.0000
     36 H36         1.2171   -0.9036   48.2850 H                0.0000
     37 H37         1.8923    0.1500   46.9984 H                0.0000
     38 H38         3.3873   -1.9012   47.9449 H                0.0000
     39 H39         4.1640   -0.3108   47.6579 H                0.0000
     40 H40         3.9667    1.3214   49.9784 H                0.0000
     41 H41         2.7418    0.5607   51.0315 H                0.0000
     42 H42        -5.3446    2.0198   50.1976 H                0.0000
     43 H43        -0.9645    3.9455   52.3909 H                0.0000
     44 H44        -2.7892    5.3987   53.4325 H                0.0000
     45 H45        -3.8045    3.9474   53.2555 H                0.0000
     46 H46         1.5431    3.4202   56.3280 H                0.0000
     47 H47         1.0660    1.7611   56.7613 H                0.0000
     48 H48         1.2681    2.2111   55.0510 H                0.0000
     49 H49        -0.8896    2.4589   58.0116 H                0.0000
     50 H50        -3.2815    3.1251   57.8800 H                0.0000
     51 H51        -4.1569    3.9948   55.7220 H                0.0000
@<TRIPOS>BOND
     1     1     2    1
     2     1    30    1
     3     1    31    1
     4     1    32    1
     5     2    29    1
     6     2     3    2
     7     3     4    1
     8     3    14    1
     9     4     5    2
    10     4     6   am
    11     6     7    1
    12     6     8    1
    13     7    33    1
    14     7    34    1
    15     7    35    1
    16     8     9    1
    17     8    13    1
    18     8    10    1
    19    10    11    1
    20    10    36    1
    21    10    37    1
    22    11    12    1
    23    11    38    1
    24    11    39    1
    25    12    13    1
    26    13    40    1
    27    13    41    1
    28    14    15    1
    29    15    29   ar
    30    15    16   ar
    31    16    17   ar
    32    17    18   ar
    33    17    42    1
    34    18    19   ar
    35    19    20    1
    36    19    29   ar
    37    20    21    1
    38    20    43    1
    39    21    22    1
    40    21    44    1
    41    21    45    1
    42    22    28   ar
    43    22    23   ar
    44    23    24   ar
    45    24    25    1
    46    24    26   ar
    47    25    46    1
    48    25    47    1
    49    25    48    1
    50    26    27   ar
    51    26    49    1
    52    27    28   ar
    53    27    50    1
    54    28    51    1
@<TRIPOS>SUBSTRUCTURE
     1         1 TEMP              0 ****  ****    0 ROOT


##########                                Name:    ZINC001341052241
##########                DOCK_Rotatable_Bonds:                   7
##########                         Heavy_Atoms:                  24
##########                    Molecular_Weight:             336.478
##########                DOCK_Rotatable_Bonds:                   7
##########                       Formal_Charge:         5.96046e-08
##########                     HBond_Acceptors:                   6
##########                        HBond_Donors:                   0
##########                         Heavy_Atoms:                  24
##########                          Grid_Score:          -31.697544
##########                     Grid_vdw_energy:          -31.004946
##########                      Grid_es_energy:           -0.692599
##########           Internal_energy_repulsive:            9.642542

@<TRIPOS>MOLECULE
ZINC001341052241
 56 58 1 0 0
SMALL
USER_CHARGES


@<TRIPOS>ATOM
      1 C1          0.5453    2.8242   50.4574 C.3     1  ZINC001341052241   -0.1700
      2 C2         -0.3899    3.8139   49.7597 C.3     1  ZINC001341052241    0.1100
      3 N3         -1.1839    3.1076   48.7513 N.pl3   1  ZINC001341052241   -0.4500
      4 C4         -2.4735    2.6698   48.8740 C.2     1  ZINC001341052241    0.1800
      5 C5         -3.3580    2.8248   50.0842 C.3     1  ZINC001341052241    0.1500
      6 O6         -4.3948    1.8421   50.0453 O.3     1  ZINC001341052241   -0.3700
      7 C7         -5.2018    1.8017   51.2240 C.3     1  ZINC001341052241    0.0900
      8 C8         -6.3396    0.7977   51.0288 C.3     1  ZINC001341052241   -0.1400
      9 C9         -7.2035    0.7543   52.2909 C.3     1  ZINC001341052241   -0.1200
     10 C10        -7.7886    2.1429   52.5564 C.3     1  ZINC001341052241   -0.1200
     11 C11        -6.6507    3.1469   52.7515 C.3     1  ZINC001341052241   -0.1200
     12 C12        -5.7868    3.1903   51.4894 C.3     1  ZINC001341052241   -0.1200
     13 N13        -2.7960    2.0946   47.7503 N.2     1  ZINC001341052241   -0.2600
     14 N14        -1.8076    2.1438   46.9302 N.2     1  ZINC001341052241   -0.3100
     15 C15        -0.7897    2.7496   47.4949 C.2     1  ZINC001341052241    0.3500
     16 N16         0.4494    2.9865   46.9216 N.3     1  ZINC001341052241   -0.4600
     17 C17         1.0359    1.7437   46.4039 C.3     1  ZINC001341052241    0.0700
     18 C18         2.4591    2.0161   45.9114 C.3     1  ZINC001341052241   -0.1100
     19 C19         2.4183    3.0802   44.8112 C.3     1  ZINC001341052241   -0.0900
     20 C20         3.8437    3.4011   44.3573 C.3     1  ZINC001341052241    0.0700
     21 O21         4.0082    3.0110   42.9924 O.3     1  ZINC001341052241   -0.3900
     22 C22         4.3447    1.6331   42.8183 C.3     1  ZINC001341052241    0.0300
     23 C23         1.7592    4.3478   45.3621 C.3     1  ZINC001341052241   -0.1100
     24 C24         0.3563    4.0077   45.8704 C.3     1  ZINC001341052241    0.0700
     25 H25        -0.0442    2.0394   50.9311 H       1  ZINC001341052241    0.0600
     26 H26         1.2179    2.3805   49.7233 H       1  ZINC001341052241    0.0700
     27 H27         1.1288    3.3478   51.2148 H       1  ZINC001341052241    0.0800
     28 H28         0.2002    4.5931   49.2772 H       1  ZINC001341052241    0.0900
     29 H29        -1.0555    4.2653   50.4954 H       1  ZINC001341052241    0.1000
     30 H30        -2.7639    2.6904   50.9881 H       1  ZINC001341052241    0.0900
     31 H31        -3.8011    3.8207   50.0852 H       1  ZINC001341052241    0.0700
     32 H32        -4.5897    1.4969   52.0730 H       1  ZINC001341052241    0.0600
     33 H33        -6.9516    1.1025   50.1799 H       1  ZINC001341052241    0.0700
     34 H34        -5.9228   -0.1916   50.8398 H       1  ZINC001341052241    0.0700
     35 H35        -6.5916    0.4495   53.1399 H       1  ZINC001341052241    0.0600
     36 H36        -8.0142    0.0390   52.1518 H       1  ZINC001341052241    0.0700
     37 H37        -8.4041    2.1120   53.4554 H       1  ZINC001341052241    0.0600
     38 H38        -8.4005    2.4478   51.7074 H       1  ZINC001341052241    0.0600
     39 H39        -6.0388    2.8422   53.6005 H       1  ZINC001341052241    0.0600
     40 H40        -7.0675    4.1362   52.9406 H       1  ZINC001341052241    0.0700
     41 H41        -4.9761    3.9056   51.6285 H       1  ZINC001341052241    0.0700
     42 H42        -6.3987    3.4951   50.6405 H       1  ZINC001341052241    0.0700
     43 H43         0.4302    1.3731   45.5769 H       1  ZINC001341052241    0.0600
     44 H44         1.0629    0.9969   47.1973 H       1  ZINC001341052241    0.0800
     45 H45         2.8885    1.0970   45.5131 H       1  ZINC001341052241    0.0800
     46 H46         3.0690    2.3737   46.7411 H       1  ZINC001341052241    0.0800
     47 H47         1.8417    2.7071   43.9648 H       1  ZINC001341052241    0.0800
     48 H48         4.5543    2.8564   44.9789 H       1  ZINC001341052241    0.0500
     49 H49         4.0233    4.4719   44.4532 H       1  ZINC001341052241    0.0500
     50 H50         5.2841    1.4212   43.3288 H       1  ZINC001341052241    0.0400
     51 H51         4.4520    1.4169   41.7553 H       1  ZINC001341052241    0.0900
     52 H52         3.5546    1.0104   43.2378 H       1  ZINC001341052241    0.0400
     53 H53         2.3582    4.7420   46.1831 H       1  ZINC001341052241    0.0700
     54 H54         1.6887    5.0944   44.5711 H       1  ZINC001341052241    0.0800
     55 H55        -0.2462    3.6266   45.0460 H       1  ZINC001341052241    0.0600
     56 H56        -0.1103    4.9053   46.2764 H       1  ZINC001341052241    0.0800
@<TRIPOS>BOND
     1     1     2    1
     2     1    25    1
     3     1    26    1
     4     1    27    1
     5     2     3    1
     6     2    28    1
     7     2    29    1
     8     3    15    1
     9     3     4    1
    10     4     5    1
    11     4    13    2
    12     5     6    1
    13     5    30    1
    14     5    31    1
    15     6     7    1
    16     7    12    1
    17     7     8    1
    18     7    32    1
    19     8     9    1
    20     8    33    1
    21     8    34    1
    22     9    10    1
    23     9    35    1
    24     9    36    1
    25    10    11    1
    26    10    37    1
    27    10    38    1
    28    11    12    1
    29    11    39    1
    30    11    40    1
    31    12    41    1
    32    12    42    1
    33    13    14    1
    34    14    15    2
    35    15    16    1
    36    16    24    1
    37    16    17    1
    38    17    18    1
    39    17    43    1
    40    17    44    1
    41    18    19    1
    42    18    45    1
    43    18    46    1
    44    19    20    1
    45    19    23    1
    46    19    47    1
    47    20    21    1
    48    20    48    1
    49    20    49    1
    50    21    22    1
    51    22    50    1
    52    22    51    1
    53    22    52    1
    54    23    24    1
    55    23    53    1
    56    23    54    1
    57    24    55    1
    58    24    56    1
@<TRIPOS>SUBSTRUCTURE
     1 ZINC001341052241        1 TEMP              0 ****  ****    0 ROOT


##########                                Name:    ZINC000409064708
##########                DOCK_Rotatable_Bonds:                   8
##########                         Heavy_Atoms:                  29
##########                    Molecular_Weight:             415.442
##########                DOCK_Rotatable_Bonds:                   8
##########                       Formal_Charge:                0.03
##########                     HBond_Acceptors:                   8
##########                        HBond_Donors:                   0
##########                         Heavy_Atoms:                  29
##########                          Grid_Score:          -31.652231
##########                     Grid_vdw_energy:          -30.833012
##########                      Grid_es_energy:           -0.819220
##########           Internal_energy_repulsive:           20.669897

@<TRIPOS>MOLECULE
ZINC000409064708
 47 49 1 0 0
SMALL
USER_CHARGES


@<TRIPOS>ATOM
      1 C1         -8.8698    5.0326   49.8608 C.3     1  ZINC000409064708    0.0400
      2 O2         -8.2974    3.7338   50.1671 O.3     1  ZINC000409064708   -0.3500
      3 C3         -8.1228    3.4354   51.4640 C.2     1  ZINC000409064708    0.4600
      4 O4         -8.9809    2.8353   52.0669 O.2     1  ZINC000409064708   -0.4900
      5 C5         -6.8562    3.8487   52.1683 C.3     1  ZINC000409064708    0.1400
      6 H6         -6.8168    4.9359   52.2368 H       1  ZINC000409064708    0.1500
      7 C7         -6.8355    3.2479   53.5751 C.3     1  ZINC000409064708   -0.1600
      8 N8         -5.6975    3.3648   51.4135 N.am    1  ZINC000409064708   -0.5600
      9 C9         -5.6843    2.1196   50.9243 C.2     1  ZINC000409064708    0.5400
     10 O10        -6.5660    1.2889   51.0336 O.2     1  ZINC000409064708   -0.4200
     11 S11        -4.1368    1.9123   50.0857 S.3     1  ZINC000409064708   -0.0100
     12 C12        -3.5626    3.5538   50.4406 C.2     1  ZINC000409064708   -0.2400
     13 C13        -2.3832    4.1214   50.0822 C.2     1  ZINC000409064708    0.0900
     14 C14        -1.4045    3.3516   49.3037 C.ar    1  ZINC000409064708   -0.1400
     15 C15        -1.6961    2.9711   47.9879 C.ar    1  ZINC000409064708    0.0000
     16 C16        -0.7750    2.2495   47.2626 C.ar    1  ZINC000409064708   -0.1600
     17 C17         0.4425    1.8982   47.8344 C.ar    1  ZINC000409064708    0.1600
     18 O18         1.3473    1.1865   47.1145 O.3     1  ZINC000409064708   -0.3000
     19 C19         2.7211    1.3218   47.4839 C.3     1  ZINC000409064708    0.1000
     20 C20         3.0588    0.3051   48.5438 C.ar    1  ZINC000409064708   -0.0700
     21 C21         2.3524   -0.8809   48.6134 C.ar    1  ZINC000409064708   -0.1000
     22 C22         2.6610   -1.8147   49.5853 C.ar    1  ZINC000409064708   -0.0900
     23 C23         3.6764   -1.5632   50.4881 C.ar    1  ZINC000409064708   -0.1400
     24 C24         4.3852   -0.3756   50.4190 C.ar    1  ZINC000409064708    0.1000
     25 F25         5.3782   -0.1285   51.3012 F       1  ZINC000409064708   -0.1400
     26 C26         4.0787    0.5564   49.4422 C.ar    1  ZINC000409064708   -0.1300
     27 C27         0.7372    2.2732   49.1400 C.ar    1  ZINC000409064708   -0.2200
     28 C28        -0.1740    3.0003   49.8723 C.ar    1  ZINC000409064708   -0.0400
     29 C29        -4.6593    4.1575   51.2060 C.2     1  ZINC000409064708    0.5600
     30 O30        -4.6140    5.2994   51.6245 O.2     1  ZINC000409064708   -0.4600
     31 H31        -9.8577    5.1105   50.3149 H       1  ZINC000409064708    0.0700
     32 H32        -8.2248    5.8166   50.2575 H       1  ZINC000409064708    0.0700
     33 H33        -8.9567    5.1457   48.7802 H       1  ZINC000409064708    0.1100
     34 H34        -7.6975    3.6080   54.1368 H       1  ZINC000409064708    0.1000
     35 H35        -6.8749    2.1607   53.5066 H       1  ZINC000409064708    0.0800
     36 H36        -5.9194    3.5468   54.0845 H       1  ZINC000409064708    0.0800
     37 H37        -2.1642    5.1392   50.3696 H       1  ZINC000409064708    0.1600
     38 H38        -2.6420    3.2429   47.5431 H       1  ZINC000409064708    0.1300
     39 H39        -0.9987    1.9556   46.2479 H       1  ZINC000409064708    0.1400
     40 H40         3.3504    1.1577   46.6093 H       1  ZINC000409064708    0.0800
     41 H41         2.8953    2.3246   47.8740 H       1  ZINC000409064708    0.0800
     42 H42         1.5583   -1.0782   47.9084 H       1  ZINC000409064708    0.1300
     43 H43         2.1082   -2.7408   49.6390 H       1  ZINC000409064708    0.1400
     44 H44         3.9169   -2.2924   51.2476 H       1  ZINC000409064708    0.1400
     45 H45         4.6310    1.4828   49.3871 H       1  ZINC000409064708    0.1400
     46 H46         1.6844    1.9973   49.5793 H       1  ZINC000409064708    0.1300
     47 H47         0.0560    3.2912   50.8867 H       1  ZINC000409064708    0.1300
@<TRIPOS>BOND
     1     1     2    1
     2     1    31    1
     3     1    32    1
     4     1    33    1
     5     2     3    1
     6     3     4    2
     7     3     5    1
     8     5     6    1
     9     5     7    1
    10     5     8    1
    11     7    34    1
    12     7    35    1
    13     7    36    1
    14     8    29   am
    15     8     9   am
    16     9    10    2
    17     9    11    1
    18    11    12    1
    19    12    13    2
    20    12    29    1
    21    13    14    1
    22    13    37    1
    23    14    28   ar
    24    14    15   ar
    25    15    16   ar
    26    15    38    1
    27    16    17   ar
    28    16    39    1
    29    17    18    1
    30    17    27   ar
    31    18    19    1
    32    19    20    1
    33    19    40    1
    34    19    41    1
    35    20    26   ar
    36    20    21   ar
    37    21    22   ar
    38    21    42    1
    39    22    23   ar
    40    22    43    1
    41    23    24   ar
    42    23    44    1
    43    24    25    1
    44    24    26   ar
    45    26    45    1
    46    27    28   ar
    47    27    46    1
    48    28    47    1
    49    29    30    2
@<TRIPOS>SUBSTRUCTURE
     1 ZINC000409064708        1 TEMP              0 ****  ****    0 ROOT


##########                                Name:    ZINC001109082135
##########                DOCK_Rotatable_Bonds:                   9
##########                         Heavy_Atoms:                  27
##########                    Molecular_Weight:             373.455
##########                DOCK_Rotatable_Bonds:                   9
##########                       Formal_Charge:          -0.0100003
##########                     HBond_Acceptors:                   8
##########                        HBond_Donors:                   3
##########                         Heavy_Atoms:                  27
##########                          Grid_Score:          -31.635118
##########                     Grid_vdw_energy:          -31.405594
##########                      Grid_es_energy:           -0.229525
##########           Internal_energy_repulsive:           18.885075

@<TRIPOS>MOLECULE
ZINC001109082135
 54 57 1 0 0
SMALL
USER_CHARGES


@<TRIPOS>ATOM
      1 C1         -9.2788    0.4609   59.1612 C.3     1  ZINC001109082135   -0.1400
      2 C2         -8.1676    1.4165   58.7221 C.3     1  ZINC001109082135   -0.1400
      3 C3         -8.5403    2.0493   57.4061 C.2     1  ZINC001109082135    0.5100
      4 O4         -9.1768    1.4188   56.5887 O.2     1  ZINC001109082135   -0.5400
      5 N5         -8.1663    3.3160   57.1376 N.am    1  ZINC001109082135   -0.7200
      6 C6         -8.5270    3.9306   55.8576 C.3     1  ZINC001109082135    0.1000
      7 C7         -7.4659    3.6190   54.8339 C.2     1  ZINC001109082135    0.5100
      8 O8         -6.3368    4.0354   54.9847 O.2     1  ZINC001109082135   -0.5300
      9 N9         -7.7716    2.8775   53.7507 N.am    1  ZINC001109082135   -0.7100
     10 C10        -6.7396    2.5732   52.7564 C.3     1  ZINC001109082135    0.1100
     11 H11        -5.8566    2.1530   53.2380 H       1  ZINC001109082135    0.0900
     12 C12        -7.2878    1.6031   51.6813 C.3     1  ZINC001109082135   -0.1600
     13 C13        -7.1758    2.4225   50.3602 C.3     1  ZINC001109082135    0.0600
     14 H14        -7.1655    1.8355   49.4418 H       1  ZINC001109082135    0.1300
     15 C15        -8.2969    3.5008   50.4572 C.3     1  ZINC001109082135   -0.1200
     16 C16        -7.7670    4.4779   51.5351 C.3     1  ZINC001109082135   -0.1100
     17 C17        -6.3666    3.8499   51.9443 C.3     1  ZINC001109082135    0.0400
     18 H18        -5.6621    4.5365   52.4139 H       1  ZINC001109082135    0.1200
     19 N19        -5.9400    3.2400   50.6321 N.3     1  ZINC001109082135   -0.4800
     20 C20        -4.7565    2.3876   50.8079 C.3     1  ZINC001109082135    0.0800
     21 C21        -3.6094    2.9499   50.0083 C.2     1  ZINC001109082135    0.2000
     22 C22        -2.9912    4.0936   50.4141 C.2     1  ZINC001109082135   -0.2900
     23 C23        -1.9209    4.5923   49.6432 C.2     1  ZINC001109082135    0.5200
     24 O24        -1.3395    5.6132   49.9712 O.2     1  ZINC001109082135   -0.5400
     25 N25        -1.5529    3.9152   48.5345 N.am    1  ZINC001109082135   -0.6300
     26 C26        -2.2059    2.7888   48.1871 C.2     1  ZINC001109082135    0.4300
     27 C27        -1.7828    2.0450   46.9467 C.3     1  ZINC001109082135   -0.1400
     28 C28        -0.6623    2.6572   46.1036 C.3     1  ZINC001109082135   -0.1400
     29 C29        -0.3916    1.4083   46.9450 C.3     1  ZINC001109082135   -0.1400
     30 N30        -3.1942    2.3243   48.9042 N.2     1  ZINC001109082135   -0.5300
     31 H31        -9.4084   -0.3163   58.4081 H       1  ZINC001109082135    0.0600
     32 H32        -9.0093    0.0033   60.1130 H       1  ZINC001109082135    0.0600
     33 H33       -10.2105    1.0151   59.2755 H       1  ZINC001109082135    0.0600
     34 H34        -8.0380    2.1938   59.4752 H       1  ZINC001109082135    0.1000
     35 H35        -7.2360    0.8623   58.6078 H       1  ZINC001109082135    0.1000
     36 H36        -7.6582    3.8207   57.7919 H       1  ZINC001109082135    0.4100
     37 H37        -9.4846    3.5333   55.5208 H       1  ZINC001109082135    0.1000
     38 H38        -8.6054    5.0106   55.9825 H       1  ZINC001109082135    0.1000
     39 H39        -8.6749    2.5455   53.6295 H       1  ZINC001109082135    0.4000
     40 H40        -6.6749    0.7034   51.6279 H       1  ZINC001109082135    0.0800
     41 H41        -8.3274    1.3488   51.8882 H       1  ZINC001109082135    0.0800
     42 H42        -8.4204    4.0127   49.5028 H       1  ZINC001109082135    0.0700
     43 H43        -9.2365    3.0499   50.7765 H       1  ZINC001109082135    0.0700
     44 H44        -7.6281    5.4740   51.1151 H       1  ZINC001109082135    0.0700
     45 H45        -8.4440    4.5113   52.3888 H       1  ZINC001109082135    0.0700
     46 H46        -4.4838    2.3576   51.8628 H       1  ZINC001109082135    0.1000
     47 H47        -4.9807    1.3788   50.4616 H       1  ZINC001109082135    0.0700
     48 H48        -3.3142    4.6080   51.3071 H       1  ZINC001109082135    0.1600
     49 H49        -0.8196    4.2394   47.9884 H       1  ZINC001109082135    0.4200
     50 H50        -2.5783    1.5176   46.4204 H       1  ZINC001109082135    0.1300
     51 H51        -0.7207    2.5327   45.0223 H       1  ZINC001109082135    0.1100
     52 H52        -0.2314    3.5979   46.4462 H       1  ZINC001109082135    0.1100
     53 H53         0.2176    1.5273   47.8410 H       1  ZINC001109082135    0.1100
     54 H54        -0.2718    0.4622   46.4171 H       1  ZINC001109082135    0.1100
@<TRIPOS>BOND
     1     1     2    1
     2     1    31    1
     3     1    32    1
     4     1    33    1
     5     2     3    1
     6     2    34    1
     7     2    35    1
     8     3     4    2
     9     3     5   am
    10     5     6    1
    11     5    36    1
    12     6     7    1
    13     6    37    1
    14     6    38    1
    15     7     8    2
    16     7     9   am
    17     9    10    1
    18     9    39    1
    19    10    11    1
    20    10    17    1
    21    10    12    1
    22    12    13    1
    23    12    40    1
    24    12    41    1
    25    13    14    1
    26    13    19    1
    27    13    15    1
    28    15    16    1
    29    15    42    1
    30    15    43    1
    31    16    17    1
    32    16    44    1
    33    16    45    1
    34    17    18    1
    35    17    19    1
    36    19    20    1
    37    20    21    1
    38    20    46    1
    39    20    47    1
    40    21    30    1
    41    21    22    2
    42    22    23    1
    43    22    48    1
    44    23    24    2
    45    23    25   am
    46    25    26    1
    47    25    49    1
    48    26    27    1
    49    26    30    2
    50    27    29    1
    51    27    28    1
    52    27    50    1
    53    28    29    1
    54    28    51    1
    55    28    52    1
    56    29    53    1
    57    29    54    1
@<TRIPOS>SUBSTRUCTURE
     1 ZINC001109082135        1 TEMP              0 ****  ****    0 ROOT


##########                                Name:    ZINC000538774026
##########                DOCK_Rotatable_Bonds:                  10
##########                         Heavy_Atoms:                  29
##########                    Molecular_Weight:             414.496
##########                DOCK_Rotatable_Bonds:                  10
##########                       Formal_Charge:            0.049999
##########                     HBond_Acceptors:                   9
##########                        HBond_Donors:                   2
##########                         Heavy_Atoms:                  29
##########                          Grid_Score:          -31.630835
##########                     Grid_vdw_energy:          -31.510071
##########                      Grid_es_energy:           -0.120763
##########           Internal_energy_repulsive:           27.987164

@<TRIPOS>MOLECULE
ZINC000538774026
 61 62 1 0 0
SMALL
USER_CHARGES


@<TRIPOS>ATOM
      1 C1         -8.2813    2.3590   54.6875 C.3     1  ZINC000538774026   -0.1500
      2 C2         -8.4373    1.7843   53.2781 C.3     1  ZINC000538774026   -0.1100
      3 C3         -9.9023    1.4144   53.0375 C.3     1  ZINC000538774026   -0.1400
      4 C4         -7.9997    2.8295   52.2500 C.3     1  ZINC000538774026    0.1400
      5 N5         -6.5986    3.1879   52.4840 N.pl3   1  ZINC000538774026   -0.3400
      6 N6         -6.1367    4.1867   53.3505 N.2     1  ZINC000538774026   -0.2500
      7 C7         -4.8299    4.2112   53.2921 C.2     1  ZINC000538774026    0.0500
      8 C8         -4.4102    3.2275   52.3849 C.2     1  ZINC000538774026    0.0800
      9 N9         -3.0771    2.9324   52.0395 N.am    1  ZINC000538774026   -0.6600
     10 C10        -2.5257    3.4899   50.9433 C.2     1  ZINC000538774026    0.7100
     11 O11        -3.1788    4.2490   50.2534 O.2     1  ZINC000538774026   -0.5700
     12 N12        -1.2506    3.2062   50.6119 N.am    1  ZINC000538774026   -0.7300
     13 C13        -0.6519    3.8109   49.4193 C.3     1  ZINC000538774026    0.1600
     14 C14         0.6099    4.5801   49.8163 C.3     1  ZINC000538774026   -0.1300
     15 C15         1.6121    3.6189   50.4586 C.3     1  ZINC000538774026   -0.1000
     16 C16         1.9780    2.5202   49.4587 C.3     1  ZINC000538774026   -0.0800
     17 C17         2.9652    1.5735   50.0915 C.2     1  ZINC000538774026    0.4700
     18 O18         4.0758    1.9578   50.3722 O.2     1  ZINC000538774026   -0.5000
     19 O19         2.6107    0.3037   50.3432 O.3     1  ZINC000538774026   -0.3500
     20 C20         3.3307   -0.7356   49.6293 C.3     1  ZINC000538774026    0.1200
     21 C21         3.7038   -0.2312   48.2339 C.3     1  ZINC000538774026   -0.1800
     22 C22         4.6033   -1.0951   50.3989 C.3     1  ZINC000538774026   -0.1400
     23 C23         2.4437   -1.9758   49.5030 C.3     1  ZINC000538774026   -0.1800
     24 C24         0.7163    1.7511   49.0618 C.3     1  ZINC000538774026   -0.1100
     25 C25        -0.2859    2.7122   48.4194 C.3     1  ZINC000538774026   -0.1300
     26 C26        -5.5168    2.6064   51.9033 C.2     1  ZINC000538774026   -0.0500
     27 C27        -5.5414    1.4822   50.9001 C.3     1  ZINC000538774026    0.3500
     28 F28        -6.5945    0.6117   51.2006 F       1  ZINC000538774026   -0.1900
     29 F29        -5.7223    2.0071   49.6159 F       1  ZINC000538774026   -0.1900
     30 H30        -8.5931    1.6144   55.4201 H       1  ZINC000538774026    0.0600
     31 H31        -7.2377    2.6225   54.8589 H       1  ZINC000538774026    0.0600
     32 H32        -8.9020    3.2493   54.7877 H       1  ZINC000538774026    0.0600
     33 H33        -7.8166    0.8939   53.1780 H       1  ZINC000538774026    0.0800
     34 H34       -10.5230    2.3047   53.1376 H       1  ZINC000538774026    0.0600
     35 H35       -10.0135    1.0051   52.0334 H       1  ZINC000538774026    0.0600
     36 H36       -10.2141    0.6698   53.7700 H       1  ZINC000538774026    0.0600
     37 H37        -8.1069    2.4186   51.2461 H       1  ZINC000538774026    0.1000
     38 H38        -8.6232    3.7182   52.3474 H       1  ZINC000538774026    0.1000
     39 H39        -4.1845    4.8757   53.8474 H       1  ZINC000538774026    0.2100
     40 H40        -2.5557    2.3278   52.5905 H       1  ZINC000538774026    0.4100
     41 H41        -0.7292    2.6016   51.1629 H       1  ZINC000538774026    0.4000
     42 H42        -1.3658    4.4955   48.9617 H       1  ZINC000538774026    0.1000
     43 H43         1.0553    5.0299   48.9290 H       1  ZINC000538774026    0.0800
     44 H44         0.3492    5.3627   50.5286 H       1  ZINC000538774026    0.0800
     45 H45         2.5110    4.1669   50.7414 H       1  ZINC000538774026    0.0700
     46 H46         1.1667    3.1690   51.3459 H       1  ZINC000538774026    0.0700
     47 H47         2.4235    2.9701   48.5715 H       1  ZINC000538774026    0.1100
     48 H48         4.3357    0.6524   48.3239 H       1  ZINC000538774026    0.0600
     49 H49         4.2443   -1.0114   47.6980 H       1  ZINC000538774026    0.0700
     50 H50         2.7972    0.0249   47.6857 H       1  ZINC000538774026    0.0800
     51 H51         4.3376   -1.4544   51.3930 H       1  ZINC000538774026    0.0700
     52 H52         5.1439   -1.8752   49.8629 H       1  ZINC000538774026    0.0800
     53 H53         5.2353   -0.2115   50.4889 H       1  ZINC000538774026    0.0700
     54 H54         1.5371   -1.7198   48.9548 H       1  ZINC000538774026    0.0800
     55 H55         2.9842   -2.7561   48.9671 H       1  ZINC000538774026    0.0700
     56 H56         2.1779   -2.3353   50.4971 H       1  ZINC000538774026    0.0600
     57 H57         0.9770    0.9684   48.3495 H       1  ZINC000538774026    0.0800
     58 H58         0.2709    1.3012   49.9491 H       1  ZINC000538774026    0.0600
     59 H59        -1.1847    2.1642   48.1367 H       1  ZINC000538774026    0.0800
     60 H60         0.1596    3.1621   47.5322 H       1  ZINC000538774026    0.0900
     61 H61        -4.5976    0.9383   50.9406 H       1  ZINC000538774026    0.1300
@<TRIPOS>BOND
     1     1     2    1
     2     1    30    1
     3     1    31    1
     4     1    32    1
     5     2     3    1
     6     2     4    1
     7     2    33    1
     8     3    34    1
     9     3    35    1
    10     3    36    1
    11     4     5    1
    12     4    37    1
    13     4    38    1
    14     5    26    1
    15     5     6    1
    16     6     7    2
    17     7     8    1
    18     7    39    1
    19     8     9    1
    20     8    26    2
    21     9    10   am
    22     9    40    1
    23    10    11    2
    24    10    12   am
    25    12    13    1
    26    12    41    1
    27    13    25    1
    28    13    14    1
    29    13    42    1
    30    14    15    1
    31    14    43    1
    32    14    44    1
    33    15    16    1
    34    15    45    1
    35    15    46    1
    36    16    17    1
    37    16    24    1
    38    16    47    1
    39    17    18    2
    40    17    19    1
    41    19    20    1
    42    20    21    1
    43    20    22    1
    44    20    23    1
    45    21    48    1
    46    21    49    1
    47    21    50    1
    48    22    51    1
    49    22    52    1
    50    22    53    1
    51    23    54    1
    52    23    55    1
    53    23    56    1
    54    24    25    1
    55    24    57    1
    56    24    58    1
    57    25    59    1
    58    25    60    1
    59    26    27    1
    60    27    28    1
    61    27    29    1
    62    27    61    1
@<TRIPOS>SUBSTRUCTURE
     1 ZINC000538774026        1 TEMP              0 ****  ****    0 ROOT


##########                                Name:    ZINC000563265674
##########                DOCK_Rotatable_Bonds:                   7
##########                         Heavy_Atoms:                  25
##########                    Molecular_Weight:             386.859
##########                DOCK_Rotatable_Bonds:                   7
##########                       Formal_Charge:          0.00999963
##########                     HBond_Acceptors:                  10
##########                        HBond_Donors:                   2
##########                         Heavy_Atoms:                  25
##########                          Grid_Score:          -31.597078
##########                     Grid_vdw_energy:          -28.293219
##########                      Grid_es_energy:           -3.303859
##########           Internal_energy_repulsive:           15.292937

@<TRIPOS>MOLECULE
ZINC000563265674
 44 45 1 0 0
SMALL
USER_CHARGES


@<TRIPOS>ATOM
      1 C1          4.2508    1.0779   57.2548 C.3     1  ZINC000563265674   -0.0600
      2 C2          3.1108    1.7405   56.5252 C.2     1  ZINC000563265674    0.1700
      3 N3          3.1045    2.1052   55.2780 N.2     1  ZINC000563265674   -0.3800
      4 O4          2.0383    2.6087   54.9932 O.3     1  ZINC000563265674    0.0900
      5 C5          1.2389    2.6131   56.0642 C.2     1  ZINC000563265674    0.1900
      6 C6         -0.1681    3.1488   56.1318 C.3     1  ZINC000563265674    0.2100
      7 C7         -0.9948    2.2908   57.0917 C.3     1  ZINC000563265674   -0.1400
      8 C8         -0.1401    4.5935   56.6343 C.3     1  ZINC000563265674   -0.1800
      9 N9         -0.7726    3.1073   54.7936 N.3     1  ZINC000563265674   -0.6600
     10 C10        -0.3466    4.2592   53.9876 C.3     1  ZINC000563265674    0.0400
     11 C11        -0.8437    4.0948   52.5745 C.2     1  ZINC000563265674    0.5200
     12 O12        -0.9576    5.0647   51.8550 O.2     1  ZINC000563265674   -0.4900
     13 N13        -1.1619    2.8703   52.1102 N.am    1  ZINC000563265674   -0.6700
     14 C14        -1.6237    2.7176   50.7975 C.ar    1  ZINC000563265674    0.1400
     15 C15        -0.7213    2.5218   49.7611 C.ar    1  ZINC000563265674   -0.0300
     16 C16        -1.1801    2.3710   48.4666 C.ar    1  ZINC000563265674   -0.6400
     17 S17        -0.0350    2.1221   47.1508 S.o2    1  ZINC000563265674    2.5000
     18 C18         0.9434    3.6490   47.1073 C.3     1  ZINC000563265674   -0.6500
     19 O19         0.7642    1.0298   47.5836 O.2     1  ZINC000563265674   -0.9300
     20 O20        -0.8503    2.0193   45.9916 O.2     1  ZINC000563265674   -0.9300
     21 C21        -2.5365    2.4148   48.2024 C.ar    1  ZINC000563265674   -0.0300
     22 C22        -3.4388    2.6100   49.2322 C.ar    1  ZINC000563265674   -0.1100
     23 C23        -2.9870    2.7560   50.5299 C.ar    1  ZINC000563265674   -0.0200
     24 Cl24       -4.1200    3.0004   51.8223 Cl      1  ZINC000563265674   -0.0500
     25 N25         1.9110    2.0578   57.0437 N.2     1  ZINC000563265674   -0.4700
     26 H26         4.1639   -0.0044   57.1582 H       1  ZINC000563265674    0.0900
     27 H27         5.1971    1.4063   56.8250 H       1  ZINC000563265674    0.0900
     28 H28         4.2158    1.3525   58.3092 H       1  ZINC000563265674    0.0900
     29 H29        -0.5462    2.3215   58.0846 H       1  ZINC000563265674    0.0800
     30 H30        -2.0124    2.6782   57.1406 H       1  ZINC000563265674    0.0800
     31 H31        -1.0147    1.2615   56.7337 H       1  ZINC000563265674    0.0700
     32 H32         0.4488    5.2048   55.9505 H       1  ZINC000563265674    0.0700
     33 H33        -1.1578    4.9810   56.6833 H       1  ZINC000563265674    0.0800
     34 H34         0.3085    4.6243   57.6272 H       1  ZINC000563265674    0.0800
     35 H35        -0.5571    2.2394   54.3262 H       1  ZINC000563265674    0.3600
     36 H36        -0.7593    5.1735   54.4139 H       1  ZINC000563265674    0.1200
     37 H37         0.7418    4.3184   53.9853 H       1  ZINC000563265674    0.0800
     38 H38        -1.0707    2.0947   52.6855 H       1  ZINC000563265674    0.4200
     39 H39         0.3385    2.4878   49.9663 H       1  ZINC000563265674    0.1700
     40 H40         1.4468    3.7853   48.0645 H       1  ZINC000563265674    0.1300
     41 H41         1.6862    3.5821   46.3125 H       1  ZINC000563265674    0.1400
     42 H42         0.2851    4.4972   46.9190 H       1  ZINC000563265674    0.1400
     43 H43        -2.8920    2.2966   47.1895 H       1  ZINC000563265674    0.1500
     44 H44        -4.4977    2.6441   49.0224 H       1  ZINC000563265674    0.1500
@<TRIPOS>BOND
     1     1     2    1
     2     1    26    1
     3     1    27    1
     4     1    28    1
     5     2    25    1
     6     2     3    2
     7     3     4    1
     8     4     5    1
     9     5     6    1
    10     5    25    2
    11     6     7    1
    12     6     8    1
    13     6     9    1
    14     7    29    1
    15     7    30    1
    16     7    31    1
    17     8    32    1
    18     8    33    1
    19     8    34    1
    20     9    10    1
    21     9    35    1
    22    10    11    1
    23    10    36    1
    24    10    37    1
    25    11    12    2
    26    11    13   am
    27    13    14    1
    28    13    38    1
    29    14    23   ar
    30    14    15   ar
    31    15    16   ar
    32    15    39    1
    33    16    17    1
    34    16    21   ar
    35    17    18    1
    36    17    19    2
    37    17    20    2
    38    18    40    1
    39    18    41    1
    40    18    42    1
    41    21    22   ar
    42    21    43    1
    43    22    23   ar
    44    22    44    1
    45    23    24    1
@<TRIPOS>SUBSTRUCTURE
     1 ZINC000563265674        1 TEMP              0 ****  ****    0 ROOT


##########                                Name:    ZINC000175255939
##########                DOCK_Rotatable_Bonds:                   8
##########                         Heavy_Atoms:                  28
##########                    Molecular_Weight:             394.375
##########                DOCK_Rotatable_Bonds:                   8
##########                       Formal_Charge:          -0.0399999
##########                     HBond_Acceptors:                   9
##########                        HBond_Donors:                   1
##########                         Heavy_Atoms:                  28
##########                          Grid_Score:          -31.556105
##########                     Grid_vdw_energy:          -29.459816
##########                      Grid_es_energy:           -2.096289
##########           Internal_energy_repulsive:           13.074759

@<TRIPOS>MOLECULE
ZINC000175255939
 48 50 1 0 0
SMALL
USER_CHARGES


@<TRIPOS>ATOM
      1 C1         -0.4145   -1.4079   61.3798 C.3     1  ZINC000175255939    0.0300
      2 O2          0.9723   -1.3200   60.9584 O.3     1  ZINC000175255939   -0.3600
      3 C3          1.4815   -0.0893   60.7913 C.2     1  ZINC000175255939    0.4600
      4 O4          2.6560    0.0501   60.5442 O.2     1  ZINC000175255939   -0.5000
      5 C5          0.5883    1.1184   60.9117 C.3     1  ZINC000175255939   -0.0800
      6 H6         -0.3174    0.8478   61.4544 H       1  ZINC000175255939    0.1100
      7 C7          1.3255    2.2246   61.6694 C.3     1  ZINC000175255939   -0.1200
      8 C8          0.4186    3.4507   61.7915 C.3     1  ZINC000175255939   -0.1100
      9 C9          0.0459    3.9506   60.3944 C.3     1  ZINC000175255939   -0.1200
     10 C10        -0.6913    2.8446   59.6368 C.3     1  ZINC000175255939   -0.1000
     11 H11        -1.5971    2.5740   60.1795 H       1  ZINC000175255939    0.1100
     12 C12        -1.0584    3.3371   58.2607 C.2     1  ZINC000175255939    0.5100
     13 O13        -0.2554    3.9708   57.6092 O.2     1  ZINC000175255939   -0.4800
     14 N14        -2.2791    3.0733   57.7540 N.am    1  ZINC000175255939   -0.6300
     15 C15        -2.6177    3.5282   56.4874 C.2     1  ZINC000175255939    0.2100
     16 C16        -2.0941    3.1056   55.3021 C.2     1  ZINC000175255939   -0.2600
     17 C17        -2.7783    3.8828   54.3316 C.2     1  ZINC000175255939    0.0900
     18 C18        -2.5967    3.8310   52.8598 C.ar    1  ZINC000175255939   -0.0500
     19 C19        -3.4939    3.1136   52.0705 C.ar    1  ZINC000175255939   -0.0600
     20 C20        -3.3227    3.0672   50.7031 C.ar    1  ZINC000175255939   -0.1300
     21 C21        -2.2575    3.7339   50.1124 C.ar    1  ZINC000175255939    0.1200
     22 O22        -2.0913    3.6864   48.7650 O.3     1  ZINC000175255939   -0.3200
     23 C23        -1.6966    2.4330   48.2038 C.3     1  ZINC000175255939    0.4100
     24 F24        -2.8311    1.7377   47.7715 F       1  ZINC000175255939   -0.2000
     25 F25        -0.8443    2.6564   47.1170 F       1  ZINC000175255939   -0.2000
     26 C26        -1.3622    4.4493   50.8963 C.ar    1  ZINC000175255939   -0.1900
     27 C27        -1.5320    4.5044   52.2636 C.ar    1  ZINC000175255939   -0.0500
     28 N28        -3.6034    4.6563   54.9961 N.2     1  ZINC000175255939   -0.3600
     29 O29        -3.5296    4.4670   56.1878 O.3     1  ZINC000175255939    0.1200
     30 C30         0.2156    1.6185   59.5145 C.3     1  ZINC000175255939   -0.0900
     31 H31        -0.6991   -2.4556   61.4769 H       1  ZINC000175255939    0.1000
     32 H32        -0.5345   -0.9082   62.3411 H       1  ZINC000175255939    0.0600
     33 H33        -1.0510   -0.9258   60.6378 H       1  ZINC000175255939    0.0600
     34 H34         1.5910    1.8683   62.6647 H       1  ZINC000175255939    0.0800
     35 H35         2.2312    2.4951   61.1266 H       1  ZINC000175255939    0.0700
     36 H36        -0.4871    3.1801   62.3343 H       1  ZINC000175255939    0.0700
     37 H37         0.9439    4.2386   62.3314 H       1  ZINC000175255939    0.0800
     38 H38        -0.6001    4.8243   60.4815 H       1  ZINC000175255939    0.0700
     39 H39         0.9516    4.2214   59.8518 H       1  ZINC000175255939    0.0800
     40 H40        -2.9209    2.5654   58.2745 H       1  ZINC000175255939    0.4300
     41 H41        -1.3353    2.3545   55.1393 H       1  ZINC000175255939    0.1800
     42 H42        -4.3222    2.5943   52.5295 H       1  ZINC000175255939    0.1400
     43 H43        -4.0176    2.5114   50.0910 H       1  ZINC000175255939    0.1400
     44 H44        -1.1757    1.8445   48.9591 H       1  ZINC000175255939    0.1900
     45 H45        -0.5346    4.9669   50.4342 H       1  ZINC000175255939    0.1400
     46 H46        -0.8355    5.0613   52.8727 H       1  ZINC000175255939    0.1400
     47 H47         1.1213    1.8891   58.9719 H       1  ZINC000175255939    0.0900
     48 H48        -0.3096    0.8305   58.9748 H       1  ZINC000175255939    0.0800
@<TRIPOS>BOND
     1     1     2    1
     2     1    31    1
     3     1    32    1
     4     1    33    1
     5     2     3    1
     6     3     4    2
     7     3     5    1
     8     5     6    1
     9     5    30    1
    10     5     7    1
    11     7     8    1
    12     7    34    1
    13     7    35    1
    14     8     9    1
    15     8    36    1
    16     8    37    1
    17     9    10    1
    18     9    38    1
    19     9    39    1
    20    10    11    1
    21    10    12    1
    22    10    30    1
    23    12    13    2
    24    12    14   am
    25    14    15    1
    26    14    40    1
    27    15    29    1
    28    15    16    2
    29    16    17    1
    30    16    41    1
    31    17    18    1
    32    17    28    2
    33    18    27   ar
    34    18    19   ar
    35    19    20   ar
    36    19    42    1
    37    20    21   ar
    38    20    43    1
    39    21    22    1
    40    21    26   ar
    41    22    23    1
    42    23    24    1
    43    23    25    1
    44    23    44    1
    45    26    27   ar
    46    26    45    1
    47    27    46    1
    48    28    29    1
    49    30    47    1
    50    30    48    1
@<TRIPOS>SUBSTRUCTURE
     1 ZINC000175255939        1 TEMP              0 ****  ****    0 ROOT


##########                                Name:    ZINC001570985666
##########                DOCK_Rotatable_Bonds:                   7
##########                         Heavy_Atoms:                  26
##########                    Molecular_Weight:             357.415
##########                DOCK_Rotatable_Bonds:                   7
##########                       Formal_Charge:          -0.0100001
##########                     HBond_Acceptors:                   9
##########                        HBond_Donors:                   3
##########                         Heavy_Atoms:                  26
##########                          Grid_Score:          -31.526848
##########                     Grid_vdw_energy:          -28.973257
##########                      Grid_es_energy:           -2.553591
##########           Internal_energy_repulsive:           10.396494

@<TRIPOS>MOLECULE
ZINC001570985666
 49 52 1 0 0
SMALL
USER_CHARGES


@<TRIPOS>ATOM
      1 C1         -4.3029    3.1474   51.4406 C.3     1  ZINC001570985666   -0.1600
      2 C2         -2.7751    3.1962   51.5078 C.3     1  ZINC001570985666    0.1300
      3 H3         -2.3905    2.2498   51.8877 H       1  ZINC001570985666    0.0800
      4 C4         -2.3268    4.3520   52.4271 C.3     1  ZINC001570985666    0.1400
      5 H5         -3.1052    5.1116   52.4989 H       1  ZINC001570985666    0.1100
      6 N6         -1.9720    3.8489   53.7564 N.am    1  ZINC001570985666   -0.7200
      7 C7         -2.7445    4.1497   54.8190 C.2     1  ZINC001570985666    0.6000
      8 O8         -3.7353    4.8400   54.6746 O.2     1  ZINC001570985666   -0.5300
      9 C9         -2.3887    3.6424   56.1556 C.2     1  ZINC001570985666   -0.2300
     10 C10        -3.1806    3.6752   57.2830 C.2     1  ZINC001570985666    0.0700
     11 N11        -2.4940    3.1133   58.2977 N.pl3   1  ZINC001570985666   -0.5200
     12 C12        -1.2612    2.7136   57.8439 C.2     1  ZINC001570985666    0.0600
     13 C13        -0.2135    2.0535   58.6546 C.2     1  ZINC001570985666    0.2500
     14 N14        -0.3608    1.5262   59.8553 N.2     1  ZINC001570985666   -0.3100
     15 N15         0.7807    1.0518   60.2199 N.pl3   1  ZINC001570985666   -0.2200
     16 N16         1.6461    1.2608   59.2902 N.2     1  ZINC001570985666   -0.0400
     17 N17         1.0701    1.8693   58.3098 N.2     1  ZINC001570985666   -0.2600
     18 C18        -1.1677    3.0210   56.5256 C.2     1  ZINC001570985666   -0.0600
     19 C19        -1.0781    4.9126   51.6966 C.3     1  ZINC001570985666   -0.1500
     20 C20        -1.4809    4.7355   50.2113 C.3     1  ZINC001570985666    0.1000
     21 N21        -2.2240    3.4592   50.1704 N.am    1  ZINC001570985666   -0.6200
     22 C22        -2.3719    2.6709   49.0872 C.2     1  ZINC001570985666    0.5300
     23 O23        -3.0067    1.6408   49.1692 O.2     1  ZINC001570985666   -0.5300
     24 C24        -1.7488    3.0697   47.7743 C.3     1  ZINC001570985666   -0.1300
     25 C25        -0.3469    2.4656   47.6709 C.3     1  ZINC001570985666   -0.1000
     26 C26        -0.0522    1.8229   46.3052 C.3     1  ZINC001570985666   -0.1300
     27 C27         1.3580    2.4268   46.4135 C.3     1  ZINC001570985666   -0.1400
     28 C28         0.7444    3.4953   47.3337 C.3     1  ZINC001570985666   -0.1400
     29 H29        -4.6119    2.3329   50.7855 H       1  ZINC001570985666    0.0700
     30 H30        -4.7053    2.9826   52.4400 H       1  ZINC001570985666    0.0700
     31 H31        -4.6797    4.0920   51.0483 H       1  ZINC001570985666    0.0600
     32 H32        -1.1810    3.2993   53.8719 H       1  ZINC001570985666    0.4000
     33 H33        -4.1792    4.0819   57.3434 H       1  ZINC001570985666    0.1800
     34 H34        -2.8194    3.0082   59.2053 H       1  ZINC001570985666    0.4300
     35 H35         0.9597    0.6070   61.0631 H       1  ZINC001570985666    0.4800
     36 H36        -0.3213    2.8341   55.8812 H       1  ZINC001570985666    0.1600
     37 H37        -0.9244    5.9646   51.9371 H       1  ZINC001570985666    0.0900
     38 H38        -0.1906    4.3257   51.9334 H       1  ZINC001570985666    0.0800
     39 H39        -2.1199    5.5583   49.8909 H       1  ZINC001570985666    0.0800
     40 H40        -0.5930    4.6764   49.5820 H       1  ZINC001570985666    0.0800
     41 H41        -2.3643    2.7020   46.9534 H       1  ZINC001570985666    0.0900
     42 H42        -1.6811    4.1562   47.7195 H       1  ZINC001570985666    0.0900
     43 H43        -0.0976    1.8269   48.5184 H       1  ZINC001570985666    0.1000
     44 H44        -0.0632    0.7331   46.3240 H       1  ZINC001570985666    0.0700
     45 H45        -0.6440    2.2393   45.4900 H       1  ZINC001570985666    0.0800
     46 H46         2.0739    1.7766   46.9163 H       1  ZINC001570985666    0.0800
     47 H47         1.7355    2.8259   45.4721 H       1  ZINC001570985666    0.0700
     48 H48         0.3703    4.3688   46.7996 H       1  ZINC001570985666    0.0800
     49 H49         1.3765    3.7556   48.1826 H       1  ZINC001570985666    0.0700
@<TRIPOS>BOND
     1     1     2    1
     2     1    29    1
     3     1    30    1
     4     1    31    1
     5     2     3    1
     6     2    21    1
     7     2     4    1
     8     4     5    1
     9     4     6    1
    10     4    19    1
    11     6     7   am
    12     6    32    1
    13     7     8    2
    14     7     9    1
    15     9    18    1
    16     9    10    2
    17    10    11    1
    18    10    33    1
    19    11    12    1
    20    11    34    1
    21    12    13    1
    22    12    18    2
    23    13    17    1
    24    13    14    2
    25    14    15    1
    26    15    16    1
    27    15    35    1
    28    16    17    2
    29    18    36    1
    30    19    20    1
    31    19    37    1
    32    19    38    1
    33    20    21    1
    34    20    39    1
    35    20    40    1
    36    21    22   am
    37    22    23    2
    38    22    24    1
    39    24    25    1
    40    24    41    1
    41    24    42    1
    42    25    28    1
    43    25    26    1
    44    25    43    1
    45    26    27    1
    46    26    44    1
    47    26    45    1
    48    27    28    1
    49    27    46    1
    50    27    47    1
    51    28    48    1
    52    28    49    1
@<TRIPOS>SUBSTRUCTURE
     1 ZINC001570985666        1 TEMP              0 ****  ****    0 ROOT


##########                                Name:    ZINC000981700465
##########                DOCK_Rotatable_Bonds:                   9
##########                         Heavy_Atoms:                  26
##########                    Molecular_Weight:             356.428
##########                DOCK_Rotatable_Bonds:                   9
##########                       Formal_Charge:               -0.01
##########                     HBond_Acceptors:                   8
##########                        HBond_Donors:                   3
##########                         Heavy_Atoms:                  26
##########                          Grid_Score:          -31.482143
##########                     Grid_vdw_energy:          -31.756468
##########                      Grid_es_energy:            0.274325
##########           Internal_energy_repulsive:           11.317090

@<TRIPOS>MOLECULE
ZINC000981700465
 50 52 1 0 0
SMALL
USER_CHARGES


@<TRIPOS>ATOM
      1 C1         -6.9315    3.3431   55.2476 C.3     1  ZINC000981700465   -0.1500
      2 C2         -6.0228    4.2341   54.3982 C.3     1  ZINC000981700465   -0.1100
      3 C3         -6.5545    4.2855   52.9645 C.3     1  ZINC000981700465   -0.0500
      4 C4         -6.2835    2.9703   52.2808 C.2     1  ZINC000981700465    0.1400
      5 N5         -7.0601    1.9223   52.2990 N.2     1  ZINC000981700465   -0.2900
      6 N6         -6.4632    0.9027   51.5494 N.pl3   1  ZINC000981700465   -0.4600
      7 C7         -5.2943    1.3559   51.0688 C.2     1  ZINC000981700465    0.1000
      8 C8         -5.1465    2.6581   51.5022 C.2     1  ZINC000981700465   -0.2900
      9 C9         -4.0101    3.5524   51.2151 C.2     1  ZINC000981700465    0.5900
     10 O10        -3.7439    4.4614   51.9776 O.2     1  ZINC000981700465   -0.5300
     11 N11        -3.2663    3.3624   50.1072 N.am    1  ZINC000981700465   -0.7300
     12 C12        -2.1381    4.2521   49.8210 C.3     1  ZINC000981700465    0.1300
     13 C13        -1.4782    3.8320   48.5061 C.3     1  ZINC000981700465   -0.1100
     14 H14        -2.0696    4.1747   47.6570 H       1  ZINC000981700465    0.0900
     15 C15        -0.0352    4.3887   48.4217 C.3     1  ZINC000981700465   -0.1200
     16 C16         0.6463    3.4216   47.4221 C.3     1  ZINC000981700465   -0.1300
     17 C17         0.0544    2.0399   47.7691 C.3     1  ZINC000981700465    0.1400
     18 H18        -0.0967    1.4592   46.8591 H       1  ZINC000981700465    0.1000
     19 N19         0.9525    1.3232   48.6780 N.am    1  ZINC000981700465   -0.7100
     20 C20         1.7430    0.3387   48.2066 C.2     1  ZINC000981700465    0.5600
     21 O21         1.7098    0.0445   47.0280 O.2     1  ZINC000981700465   -0.5200
     22 C22         2.6524   -0.3849   49.1252 C.ar    1  ZINC000981700465   -0.1400
     23 C23         3.7535    0.2556   49.7080 C.ar    1  ZINC000981700465   -0.0600
     24 C24         4.5583   -0.4866   50.5570 C.ar    1  ZINC000981700465    0.0400
     25 N25         4.2757   -1.7530   50.7930 N.ar    1  ZINC000981700465   -0.2200
     26 N26         3.2691   -2.3454   50.2626 N.ar    1  ZINC000981700465   -0.2400
     27 C27         2.4381   -1.7285   49.4450 C.ar    1  ZINC000981700465    0.0700
     28 C28        -1.2996    2.3005   48.4568 C.3     1  ZINC000981700465   -0.1200
     29 H29        -6.9471    2.3366   54.8295 H       1  ZINC000981700465    0.0600
     30 H30        -6.5527    3.3065   56.2689 H       1  ZINC000981700465    0.0600
     31 H31        -7.9421    3.7515   55.2493 H       1  ZINC000981700465    0.0500
     32 H32        -6.0073    5.2407   54.8162 H       1  ZINC000981700465    0.0600
     33 H33        -5.0122    3.8257   54.3965 H       1  ZINC000981700465    0.0600
     34 H34        -7.6284    4.4716   52.9817 H       1  ZINC000981700465    0.1000
     35 H35        -6.0555    5.0874   52.4205 H       1  ZINC000981700465    0.0800
     36 H36        -6.8317    0.0177   51.4017 H       1  ZINC000981700465    0.4500
     37 H37        -4.5996    0.8044   50.4527 H       1  ZINC000981700465    0.1800
     38 H38        -3.4779    2.6366   49.4996 H       1  ZINC000981700465    0.4000
     39 H39        -2.4968    5.2779   49.7360 H       1  ZINC000981700465    0.0700
     40 H40        -1.4102    4.1877   50.6297 H       1  ZINC000981700465    0.0700
     41 H41        -0.0363    5.4074   48.0340 H       1  ZINC000981700465    0.0700
     42 H42         0.4531    4.3453   49.3952 H       1  ZINC000981700465    0.0700
     43 H43         0.3987    3.6961   46.3967 H       1  ZINC000981700465    0.0800
     44 H44         1.7265    3.4214   47.5677 H       1  ZINC000981700465    0.0700
     45 H45         0.9782    1.5572   49.6189 H       1  ZINC000981700465    0.4000
     46 H46         3.9683    1.2937   49.5017 H       1  ZINC000981700465    0.1700
     47 H47         5.4169   -0.0283   51.0254 H       1  ZINC000981700465    0.1800
     48 H48         1.6011   -2.2611   49.0182 H       1  ZINC000981700465    0.1700
     49 H49        -1.2887    1.8948   49.4684 H       1  ZINC000981700465    0.0800
     50 H50        -2.1049    1.8455   47.8802 H       1  ZINC000981700465    0.0800
@<TRIPOS>BOND
     1     1     2    1
     2     1    29    1
     3     1    30    1
     4     1    31    1
     5     2     3    1
     6     2    32    1
     7     2    33    1
     8     3     4    1
     9     3    34    1
    10     3    35    1
    11     4     8    1
    12     4     5    2
    13     5     6    1
    14     6     7    1
    15     6    36    1
    16     7     8    2
    17     7    37    1
    18     8     9    1
    19     9    10    2
    20     9    11   am
    21    11    12    1
    22    11    38    1
    23    12    13    1
    24    12    39    1
    25    12    40    1
    26    13    14    1
    27    13    28    1
    28    13    15    1
    29    15    16    1
    30    15    41    1
    31    15    42    1
    32    16    17    1
    33    16    43    1
    34    16    44    1
    35    17    18    1
    36    17    19    1
    37    17    28    1
    38    19    20   am
    39    19    45    1
    40    20    21    2
    41    20    22    1
    42    22    27   ar
    43    22    23   ar
    44    23    24   ar
    45    23    46    1
    46    24    25   ar
    47    24    47    1
    48    25    26   ar
    49    26    27   ar
    50    27    48    1
    51    28    49    1
    52    28    50    1
@<TRIPOS>SUBSTRUCTURE
     1 ZINC000981700465        1 TEMP              0 ****  ****    0 ROOT


##########                                Name:    ZINC000151991096
##########                DOCK_Rotatable_Bonds:                   8
##########                         Heavy_Atoms:                  27
##########                    Molecular_Weight:             364.444
##########                DOCK_Rotatable_Bonds:                   8
##########                       Formal_Charge:          -0.0200004
##########                     HBond_Acceptors:                   5
##########                        HBond_Donors:                   1
##########                         Heavy_Atoms:                  27
##########                          Grid_Score:          -31.470623
##########                     Grid_vdw_energy:          -31.810144
##########                      Grid_es_energy:            0.339521
##########           Internal_energy_repulsive:           12.037665

@<TRIPOS>MOLECULE
ZINC000151991096
 51 53 1 0 0
SMALL
USER_CHARGES


@<TRIPOS>ATOM
      1 C1        -12.6393    0.2371   51.8650 C.3     1  ZINC000151991096   -0.1500
      2 C2        -12.5395   -1.1231   52.5587 C.3     1  ZINC000151991096   -0.1300
      3 C3        -11.5211   -1.0413   53.6975 C.3     1  ZINC000151991096    0.1400
      4 H4        -11.8156   -0.2551   54.3928 H       1  ZINC000151991096    0.1000
      5 N5        -10.1977   -0.7367   53.1481 N.am    1  ZINC000151991096   -0.7200
      6 C6         -9.6575    0.4847   53.3295 C.2     1  ZINC000151991096    0.5600
      7 O7        -10.2693    1.3342   53.9478 O.2     1  ZINC000151991096   -0.5300
      8 C8         -8.3233    0.7910   52.7774 C.ar    1  ZINC000151991096   -0.1700
      9 C9         -7.6859   -0.1251   51.9366 C.ar    1  ZINC000151991096   -0.0500
     10 C10        -6.4415    0.1646   51.4232 C.ar    1  ZINC000151991096   -0.1600
     11 C11        -5.8193    1.3664   51.7405 C.ar    1  ZINC000151991096    0.1600
     12 O12        -4.5929    1.6484   51.2322 O.3     1  ZINC000151991096   -0.3000
     13 C13        -4.5240    2.6652   50.2305 C.3     1  ZINC000151991096    0.0900
     14 C14        -3.1268    2.7232   49.6690 C.ar    1  ZINC000151991096   -0.0500
     15 C15        -2.8919    2.3563   48.3603 C.ar    1  ZINC000151991096   -0.1000
     16 C16        -1.6094    2.4090   47.8432 C.ar    1  ZINC000151991096   -0.0900
     17 C17        -0.5546    2.8289   48.6336 C.ar    1  ZINC000151991096   -0.1200
     18 C18        -0.7753    3.1987   49.9444 C.ar    1  ZINC000151991096   -0.0700
     19 C19        -2.0675    3.1540   50.4708 C.ar    1  ZINC000151991096   -0.0200
     20 C20        -2.3040    3.5365   51.8304 C.1     1  ZINC000151991096    0.2400
     21 N21        -2.4915    3.8399   52.9089 N.1     1  ZINC000151991096   -0.4000
     22 C22        -6.4499    2.2802   52.5766 C.ar    1  ZINC000151991096   -0.2200
     23 C23        -7.6967    2.0003   53.0897 C.ar    1  ZINC000151991096   -0.0100
     24 C24       -11.4714   -2.3813   54.4344 C.3     1  ZINC000151991096    0.0700
     25 H25       -11.2546   -3.1833   53.7289 H       1  ZINC000151991096    0.1000
     26 C26       -12.8238   -2.6470   55.1299 C.3     1  ZINC000151991096   -0.1500
     27 C27       -12.3827   -3.2821   56.4767 C.3     1  ZINC000151991096   -0.1600
     28 C28       -11.0621   -2.5171   56.7441 C.3     1  ZINC000151991096    0.0500
     29 O29       -10.4613   -2.3405   55.4492 O.3     1  ZINC000151991096   -0.3700
     30 H30       -11.6645    0.5116   51.4618 H       1  ZINC000151991096    0.0500
     31 H31       -13.3648    0.1788   51.0538 H       1  ZINC000151991096    0.0500
     32 H32       -12.9594    0.9897   52.5855 H       1  ZINC000151991096    0.0600
     33 H33       -13.5143   -1.3975   52.9621 H       1  ZINC000151991096    0.0700
     34 H34       -12.2194   -1.8758   51.8383 H       1  ZINC000151991096    0.0700
     35 H35        -9.7100   -1.4141   52.6538 H       1  ZINC000151991096    0.4000
     36 H36        -8.1685   -1.0592   51.6899 H       1  ZINC000151991096    0.1300
     37 H37        -5.9479   -0.5430   50.7735 H       1  ZINC000151991096    0.1400
     38 H38        -5.2278    2.4355   49.4305 H       1  ZINC000151991096    0.0800
     39 H39        -4.7782    3.6286   50.6726 H       1  ZINC000151991096    0.0800
     40 H40        -3.7107    2.0269   47.7380 H       1  ZINC000151991096    0.1400
     41 H41        -1.4312    2.1205   46.8177 H       1  ZINC000151991096    0.1400
     42 H42         0.4439    2.8668   48.2239 H       1  ZINC000151991096    0.1400
     43 H43         0.0492    3.5260   50.5605 H       1  ZINC000151991096    0.1400
     44 H44        -5.9631    3.2128   52.8210 H       1  ZINC000151991096    0.1300
     45 H45        -8.1863    2.7111   53.7390 H       1  ZINC000151991096    0.1400
     46 H46       -13.3629   -1.7148   55.2987 H       1  ZINC000151991096    0.0800
     47 H47       -13.4272   -3.3459   54.5506 H       1  ZINC000151991096    0.0900
     48 H48       -13.1146   -3.0883   57.2608 H       1  ZINC000151991096    0.0800
     49 H49       -12.2018   -4.3513   56.3663 H       1  ZINC000151991096    0.0800
     50 H50       -11.2711   -1.5494   57.2001 H       1  ZINC000151991096    0.0600
     51 H51       -10.4073   -3.1056   57.3868 H       1  ZINC000151991096    0.0900
@<TRIPOS>BOND
     1     1     2    1
     2     1    30    1
     3     1    31    1
     4     1    32    1
     5     2     3    1
     6     2    33    1
     7     2    34    1
     8     3     4    1
     9     3     5    1
    10     3    24    1
    11     5     6   am
    12     5    35    1
    13     6     7    2
    14     6     8    1
    15     8    23   ar
    16     8     9   ar
    17     9    10   ar
    18     9    36    1
    19    10    11   ar
    20    10    37    1
    21    11    12    1
    22    11    22   ar
    23    12    13    1
    24    13    14    1
    25    13    38    1
    26    13    39    1
    27    14    19   ar
    28    14    15   ar
    29    15    16   ar
    30    15    40    1
    31    16    17   ar
    32    16    41    1
    33    17    18   ar
    34    17    42    1
    35    18    19   ar
    36    18    43    1
    37    19    20    1
    38    20    21    3
    39    22    23   ar
    40    22    44    1
    41    23    45    1
    42    24    25    1
    43    24    29    1
    44    24    26    1
    45    26    27    1
    46    26    46    1
    47    26    47    1
    48    27    28    1
    49    27    48    1
    50    27    49    1
    51    28    29    1
    52    28    50    1
    53    28    51    1
@<TRIPOS>SUBSTRUCTURE
     1 ZINC000151991096        1 TEMP              0 ****  ****    0 ROOT


##########                                Name:    ZINC001060578637
##########                DOCK_Rotatable_Bonds:                  10
##########                         Heavy_Atoms:                  25
##########                    Molecular_Weight:             345.401
##########                DOCK_Rotatable_Bonds:                  10
##########                       Formal_Charge:          -0.0400001
##########                     HBond_Acceptors:                   8
##########                        HBond_Donors:                   3
##########                         Heavy_Atoms:                  25
##########                          Grid_Score:          -31.422419
##########                     Grid_vdw_energy:          -29.371649
##########                      Grid_es_energy:           -2.050770
##########           Internal_energy_repulsive:           13.047748

@<TRIPOS>MOLECULE
ZINC001060578637
 48 49 1 0 0
SMALL
USER_CHARGES


@<TRIPOS>ATOM
      1 C1         -7.1450   -1.0266   51.5118 C.3     1  ZINC001060578637   -0.1500
      2 C2         -6.5653    0.3407   51.1443 C.3     1  ZINC001060578637   -0.1300
      3 C3         -7.0241    1.3811   52.1681 C.3     1  ZINC001060578637    0.0700
      4 H4         -6.7342    1.0592   53.1682 H       1  ZINC001060578637    0.0900
      5 O5         -8.4452    1.5171   52.1047 O.3     1  ZINC001060578637   -0.3600
      6 C6         -9.1277    1.0336   53.2635 C.3     1  ZINC001060578637    0.0300
      7 C7         -6.3785    2.7075   51.8603 C.2     1  ZINC001060578637    0.5000
      8 O8         -6.8608    3.4362   51.0193 O.2     1  ZINC001060578637   -0.5200
      9 N9         -5.2649    3.0840   52.5198 N.am    1  ZINC001060578637   -0.7300
     10 C10        -4.6381    4.3742   52.2219 C.3     1  ZINC001060578637    0.1600
     11 C11        -3.4887    4.1664   51.2698 C.ar    1  ZINC001060578637   -0.1100
     12 C12        -2.2338    4.6533   51.5844 C.ar    1  ZINC001060578637   -0.0900
     13 C13        -1.1794    4.4627   50.7110 C.ar    1  ZINC001060578637   -0.1100
     14 C14        -1.3799    3.7847   49.5231 C.ar    1  ZINC001060578637   -0.0900
     15 C15        -0.2307    3.5772   48.5706 C.3     1  ZINC001060578637    0.1800
     16 H16         0.6118    4.1972   48.8774 H       1  ZINC001060578637    0.1000
     17 C17        -0.6634    3.9685   47.1562 C.3     1  ZINC001060578637   -0.1600
     18 N18         0.1688    2.1679   48.5868 N.am    1  ZINC001060578637   -0.7000
     19 C19         1.1948    1.7670   49.3634 C.2     1  ZINC001060578637    0.6100
     20 O20         1.7900    2.5755   50.0495 O.2     1  ZINC001060578637   -0.5300
     21 C21         1.5957    0.3482   49.3810 C.2     1  ZINC001060578637    0.1200
     22 N22         1.9793   -0.3701   48.3474 N.2     1  ZINC001060578637   -0.2400
     23 N23         2.2531   -1.5653   48.7345 N.2     1  ZINC001060578637   -0.2900
     24 C24         2.0603   -1.6723   50.0265 C.2     1  ZINC001060578637    0.1900
     25 N25         1.6453   -0.4723   50.4784 N.pl3   1  ZINC001060578637   -0.5500
     26 C26        -2.6346    3.2966   49.2091 C.ar    1  ZINC001060578637   -0.1100
     27 C27        -3.6880    3.4839   50.0842 C.ar    1  ZINC001060578637   -0.0900
     28 H28        -6.7929   -1.7736   50.8004 H       1  ZINC001060578637    0.0600
     29 H29        -6.8215   -1.3005   52.5161 H       1  ZINC001060578637    0.0500
     30 H30        -8.2336   -0.9800   51.4808 H       1  ZINC001060578637    0.0600
     31 H31        -5.4766    0.2859   51.1451 H       1  ZINC001060578637    0.0800
     32 H32        -6.9139    0.6286   50.1525 H       1  ZINC001060578637    0.0800
     33 H33       -10.1935    1.2424   53.1710 H       1  ZINC001060578637    0.0900
     34 H34        -8.9745   -0.0418   53.3530 H       1  ZINC001060578637    0.0500
     35 H35        -8.7355    1.5317   54.1502 H       1  ZINC001060578637    0.0400
     36 H36        -4.8785    2.5006   53.1915 H       1  ZINC001060578637    0.4000
     37 H37        -5.3724    5.0382   51.7658 H       1  ZINC001060578637    0.0800
     38 H38        -4.2688    4.8205   53.1453 H       1  ZINC001060578637    0.0800
     39 H39        -2.0771    5.1829   52.5125 H       1  ZINC001060578637    0.1300
     40 H40        -0.1992    4.8436   50.9565 H       1  ZINC001060578637    0.1300
     41 H41        -1.5059    3.3486   46.8496 H       1  ZINC001060578637    0.0600
     42 H42        -0.9606    5.0171   47.1441 H       1  ZINC001060578637    0.0700
     43 H43         0.1678    3.8184   46.4674 H       1  ZINC001060578637    0.0700
     44 H44        -0.3052    1.5231   48.0386 H       1  ZINC001060578637    0.4100
     45 H45         2.2106   -2.5606   50.6221 H       1  ZINC001060578637    0.2300
     46 H46         1.4219   -0.2383   51.3928 H       1  ZINC001060578637    0.4400
     47 H47        -2.7911    2.7666   48.2812 H       1  ZINC001060578637    0.1300
     48 H48        -4.6683    3.1027   49.8388 H       1  ZINC001060578637    0.1300
@<TRIPOS>BOND
     1     1     2    1
     2     1    28    1
     3     1    29    1
     4     1    30    1
     5     2     3    1
     6     2    31    1
     7     2    32    1
     8     3     4    1
     9     3     5    1
    10     3     7    1
    11     5     6    1
    12     6    33    1
    13     6    34    1
    14     6    35    1
    15     7     8    2
    16     7     9   am
    17     9    10    1
    18     9    36    1
    19    10    11    1
    20    10    37    1
    21    10    38    1
    22    11    27   ar
    23    11    12   ar
    24    12    13   ar
    25    12    39    1
    26    13    14   ar
    27    13    40    1
    28    14    15    1
    29    14    26   ar
    30    15    16    1
    31    15    17    1
    32    15    18    1
    33    17    41    1
    34    17    42    1
    35    17    43    1
    36    18    19   am
    37    18    44    1
    38    19    20    2
    39    19    21    1
    40    21    25    1
    41    21    22    2
    42    22    23    1
    43    23    24    2
    44    24    25    1
    45    24    45    1
    46    25    46    1
    47    26    27   ar
    48    26    47    1
    49    27    48    1
@<TRIPOS>SUBSTRUCTURE
     1 ZINC001060578637        1 TEMP              0 ****  ****    0 ROOT


##########                                Name:    ZINC000047262406
##########                DOCK_Rotatable_Bonds:                   6
##########                         Heavy_Atoms:                  28
##########                    Molecular_Weight:             417.919
##########                DOCK_Rotatable_Bonds:                   6
##########                       Formal_Charge:          -0.0100002
##########                     HBond_Acceptors:                   9
##########                        HBond_Donors:                   1
##########                         Heavy_Atoms:                  28
##########                          Grid_Score:          -31.412485
##########                     Grid_vdw_energy:          -31.172766
##########                      Grid_es_energy:           -0.239719
##########           Internal_energy_repulsive:           14.702024

@<TRIPOS>MOLECULE
ZINC000047262406
 48 51 1 0 0
SMALL
USER_CHARGES


@<TRIPOS>ATOM
      1 C1         -9.2118    2.6842   56.5781 C.3     1  ZINC000047262406   -0.1500
      2 C2         -9.6527    2.3109   55.1613 C.3     1  ZINC000047262406    0.1800
      3 H3        -10.2936    3.0967   54.7614 H       1  ZINC000047262406    0.0800
      4 C4        -10.4150    1.0115   55.1985 C.2     1  ZINC000047262406    0.1700
      5 N5        -11.4497    0.7058   54.4676 N.2     1  ZINC000047262406   -0.2500
      6 N6        -11.8483   -0.4822   54.7595 N.2     1  ZINC000047262406   -0.2700
      7 C7        -11.0726   -0.9810   55.6974 C.2     1  ZINC000047262406    0.2400
      8 C8        -11.1892   -2.3130   56.3096 C.2     1  ZINC000047262406   -0.1500
      9 C9        -10.3680   -2.8107   57.2748 C.2     1  ZINC000047262406   -0.0600
     10 C10       -10.6823   -4.0863   57.6885 C.2     1  ZINC000047262406   -0.1400
     11 C11       -11.7393   -4.6369   57.0825 C.2     1  ZINC000047262406   -0.1900
     12 S12       -12.4161   -3.5100   55.9149 S.3     1  ZINC000047262406    0.1700
     13 O13       -10.1463   -0.0443   55.9881 O.3     1  ZINC000047262406   -0.2200
     14 N14        -8.4695    2.1602   54.3039 N.3     1  ZINC000047262406   -0.5200
     15 C15        -8.1231    3.4321   53.6568 C.3     1  ZINC000047262406    0.0500
     16 C16        -6.8079    3.2744   52.8904 C.3     1  ZINC000047262406   -0.1000
     17 C17        -6.9640    2.1715   51.8397 C.3     1  ZINC000047262406   -0.1100
     18 C18        -5.6541    1.9704   51.1223 C.2     1  ZINC000047262406    0.5100
     19 O19        -5.2678    0.8493   50.8680 O.2     1  ZINC000047262406   -0.4600
     20 N20        -4.9119    3.0366   50.7631 N.am    1  ZINC000047262406   -0.6600
     21 C21        -3.6997    2.8506   50.0992 C.ar    1  ZINC000047262406    0.3600
     22 C22        -2.5162    3.2650   50.6985 C.ar    1  ZINC000047262406   -0.2000
     23 C23        -1.3198    3.0743   50.0294 C.ar    1  ZINC000047262406   -0.0400
     24 C24        -1.3493    2.4728   48.7780 C.ar    1  ZINC000047262406   -0.1200
     25 Cl25        0.1227    2.2094   47.8961 Cl      1  ZINC000047262406   -0.0500
     26 C26        -2.5634    2.0855   48.2425 C.ar    1  ZINC000047262406    0.1500
     27 N27        -3.6868    2.2762   48.9068 N.ar    1  ZINC000047262406   -0.4600
     28 C28        -7.3721    0.8696   52.5347 C.3     1  ZINC000047262406   -0.1100
     29 C29        -8.6709    1.0970   53.3113 C.3     1  ZINC000047262406    0.0600
     30 H30        -8.6604    3.6241   56.5511 H       1  ZINC000047262406    0.0800
     31 H31       -10.0896    2.7961   57.2143 H       1  ZINC000047262406    0.0700
     32 H32        -8.5709    1.8984   56.9780 H       1  ZINC000047262406    0.0800
     33 H33        -9.5386   -2.2515   57.6821 H       1  ZINC000047262406    0.1600
     34 H34       -10.1154   -4.6047   58.4477 H       1  ZINC000047262406    0.1600
     35 H35       -12.1232   -5.6262   57.2835 H       1  ZINC000047262406    0.1800
     36 H36        -8.9157    3.7146   52.9637 H       1  ZINC000047262406    0.0400
     37 H37        -8.0110    4.2068   54.4152 H       1  ZINC000047262406    0.0900
     38 H38        -6.5591    4.2142   52.3973 H       1  ZINC000047262406    0.0800
     39 H39        -6.0120    3.0053   53.5849 H       1  ZINC000047262406    0.0900
     40 H40        -7.7323    2.4586   51.1218 H       1  ZINC000047262406    0.1000
     41 H41        -5.2209    3.9333   50.9666 H       1  ZINC000047262406    0.4200
     42 H42        -2.5300    3.7300   51.6731 H       1  ZINC000047262406    0.1500
     43 H43        -0.3846    3.3866   50.4702 H       1  ZINC000047262406    0.1500
     44 H44        -2.5921    1.6176   47.2695 H       1  ZINC000047262406    0.1700
     45 H45        -7.5263    0.0912   51.7874 H       1  ZINC000047262406    0.0700
     46 H46        -6.5851    0.5627   53.2236 H       1  ZINC000047262406    0.0800
     47 H47        -8.9566    0.1756   53.8189 H       1  ZINC000047262406    0.0700
     48 H48        -9.4609    1.3904   52.6199 H       1  ZINC000047262406    0.0400
@<TRIPOS>BOND
     1     1     2    1
     2     1    30    1
     3     1    31    1
     4     1    32    1
     5     2     3    1
     6     2     4    1
     7     2    14    1
     8     4    13    1
     9     4     5    2
    10     5     6    1
    11     6     7    2
    12     7     8    1
    13     7    13    1
    14     8    12    1
    15     8     9    2
    16     9    10    1
    17     9    33    1
    18    10    11    2
    19    10    34    1
    20    11    12    1
    21    11    35    1
    22    14    29    1
    23    14    15    1
    24    15    16    1
    25    15    36    1
    26    15    37    1
    27    16    17    1
    28    16    38    1
    29    16    39    1
    30    17    18    1
    31    17    28    1
    32    17    40    1
    33    18    19    2
    34    18    20   am
    35    20    21    1
    36    20    41    1
    37    21    27   ar
    38    21    22   ar
    39    22    23   ar
    40    22    42    1
    41    23    24   ar
    42    23    43    1
    43    24    25    1
    44    24    26   ar
    45    26    27   ar
    46    26    44    1
    47    28    29    1
    48    28    45    1
    49    28    46    1
    50    29    47    1
    51    29    48    1
@<TRIPOS>SUBSTRUCTURE
     1 ZINC000047262406        1 TEMP              0 ****  ****    0 ROOT


##########                                Name:    ZINC000426805817
##########                DOCK_Rotatable_Bonds:                   6
##########                         Heavy_Atoms:                  26
##########                    Molecular_Weight:             412.286
##########                DOCK_Rotatable_Bonds:                   6
##########                       Formal_Charge:          -0.0100001
##########                     HBond_Acceptors:                   5
##########                        HBond_Donors:                   4
##########                         Heavy_Atoms:                  26
##########                          Grid_Score:          -31.390306
##########                     Grid_vdw_energy:          -29.174921
##########                      Grid_es_energy:           -2.215386
##########           Internal_energy_repulsive:            7.903358

@<TRIPOS>MOLECULE
ZINC000426805817
 44 47 1 0 0
SMALL
USER_CHARGES


@<TRIPOS>ATOM
      1 O1         -0.7878    5.8060   55.9346 O.co2   1  ZINC000426805817   -0.6300
      2 C2         -1.6880    5.2132   55.3648 C.2     1  ZINC000426805817    0.5000
      3 O3         -2.7928    5.7213   55.2773 O.co2   1  ZINC000426805817   -0.6800
      4 C4         -1.4335    3.8551   54.7633 C.3     1  ZINC000426805817   -0.0500
      5 H5         -2.3149    3.2277   54.8967 H       1  ZINC000426805817    0.1300
      6 C6         -1.1363    4.0061   53.2701 C.3     1  ZINC000426805817   -0.0500
      7 C7         -2.3341    3.5600   52.4718 C.2     1  ZINC000426805817   -0.1900
      8 C8         -3.6012    3.4836   52.9083 C.2     1  ZINC000426805817    0.0500
      9 N9         -4.4149    3.0376   51.9028 N.pl3   1  ZINC000426805817   -0.5900
     10 C10        -3.6721    2.8101   50.7652 C.ar    1  ZINC000426805817    0.1100
     11 C11        -3.9924    2.3625   49.4881 C.ar    1  ZINC000426805817   -0.1200
     12 C12        -3.0042    2.2335   48.5370 C.ar    1  ZINC000426805817   -0.0700
     13 C13        -1.6852    2.5466   48.8392 C.ar    1  ZINC000426805817   -0.1100
     14 Br14       -0.3478    2.3607   47.5152 Br      1  ZINC000426805817   -0.0400
     15 C15        -1.3460    2.9920   50.0973 C.ar    1  ZINC000426805817   -0.0400
     16 C16        -2.3374    3.1335   51.0702 C.ar    1  ZINC000426805817   -0.1000
     17 N17        -0.2831    3.2316   55.4311 N.4     1  ZINC000426805817   -0.4800
     18 H18         0.0171    2.4265   54.9021 H       1  ZINC000426805817    0.4000
     19 H19         0.4733    3.8968   55.4892 H       1  ZINC000426805817    0.4200
     20 C20        -0.6709    2.8115   56.7843 C.3     1  ZINC000426805817    0.0400
     21 C21         0.5136    2.1863   57.4750 C.ar    1  ZINC000426805817   -0.1600
     22 C22         0.4422    1.8610   58.8253 C.ar    1  ZINC000426805817    0.1100
     23 N23        -0.5434    1.9829   59.7790 N.pl3   1  ZINC000426805817   -0.5900
     24 C24        -0.0931    1.5007   60.9778 C.2     1  ZINC000426805817    0.0600
     25 C25         1.1683    1.0598   60.8490 C.2     1  ZINC000426805817   -0.2000
     26 C26         1.5577    1.2773   59.4537 C.ar    1  ZINC000426805817   -0.1100
     27 C27         2.7200    1.0311   58.7210 C.ar    1  ZINC000426805817   -0.0400
     28 C28         2.7684    1.3588   57.3952 C.ar    1  ZINC000426805817   -0.1500
     29 C29         1.6690    1.9298   56.7695 C.ar    1  ZINC000426805817   -0.0700
     30 H30        -0.9191    5.0506   53.0466 H       1  ZINC000426805817    0.1200
     31 H31        -0.2751    3.3917   53.0072 H       1  ZINC000426805817    0.0900
     32 H32        -3.9296    3.7365   53.9055 H       1  ZINC000426805817    0.1700
     33 H33        -5.3723    2.9018   51.9796 H       1  ZINC000426805817    0.4200
     34 H34        -5.0147    2.1159   49.2423 H       1  ZINC000426805817    0.1300
     35 H35        -3.2576    1.8851   47.5467 H       1  ZINC000426805817    0.1400
     36 H36        -0.3195    3.2346   50.3290 H       1  ZINC000426805817    0.1400
     37 H37        -1.0060    3.6795   57.3521 H       1  ZINC000426805817    0.1500
     38 H38        -1.4802    2.0841   56.7210 H       1  ZINC000426805817    0.1300
     39 H39        -1.4255    2.3557   59.6243 H       1  ZINC000426805817    0.4300
     40 H40        -0.6673    1.4783   61.8921 H       1  ZINC000426805817    0.1800
     41 H41         1.7801    0.6271   61.6268 H       1  ZINC000426805817    0.1500
     42 H42         3.5782    0.5836   59.2003 H       1  ZINC000426805817    0.1300
     43 H43         3.6680    1.1681   56.8287 H       1  ZINC000426805817    0.1300
     44 H44         1.7226    2.1833   55.7210 H       1  ZINC000426805817    0.1300
@<TRIPOS>BOND
     1     1     2   ar
     2     2     3   ar
     3     2     4    1
     4     4     5    1
     5     4     6    1
     6     4    17    1
     7     6     7    1
     8     6    30    1
     9     6    31    1
    10     7    16    1
    11     7     8    2
    12     8     9    1
    13     8    32    1
    14     9    10    1
    15     9    33    1
    16    10    16   ar
    17    10    11   ar
    18    11    12   ar
    19    11    34    1
    20    12    13   ar
    21    12    35    1
    22    13    14    1
    23    13    15   ar
    24    15    16   ar
    25    15    36    1
    26    17    18    1
    27    17    19    1
    28    17    20    1
    29    20    21    1
    30    20    37    1
    31    20    38    1
    32    21    29   ar
    33    21    22   ar
    34    22    26   ar
    35    22    23    1
    36    23    24    1
    37    23    39    1
    38    24    25    2
    39    24    40    1
    40    25    26    1
    41    25    41    1
    42    26    27   ar
    43    27    28   ar
    44    27    42    1
    45    28    29   ar
    46    28    43    1
    47    29    44    1
@<TRIPOS>SUBSTRUCTURE
     1 ZINC000426805817        1 TEMP              0 ****  ****    0 ROOT


##########                                Name:    ZINC000624498741
##########                DOCK_Rotatable_Bonds:                   7
##########                         Heavy_Atoms:                  27
##########                    Molecular_Weight:             379.339
##########                DOCK_Rotatable_Bonds:                   7
##########                       Formal_Charge:           0.0300003
##########                     HBond_Acceptors:                   9
##########                        HBond_Donors:                   0
##########                         Heavy_Atoms:                  27
##########                          Grid_Score:          -31.387842
##########                     Grid_vdw_energy:          -31.675110
##########                      Grid_es_energy:            0.287267
##########           Internal_energy_repulsive:            8.968417

@<TRIPOS>MOLECULE
ZINC000624498741
 43 45 1 0 0
SMALL
USER_CHARGES


@<TRIPOS>ATOM
      1 C1         -6.3430    2.2508   50.8594 C.3     1  ZINC000624498741   -0.1100
      2 C2         -4.8747    2.5904   50.8676 C.ar    1  ZINC000624498741   -0.0900
      3 C3         -4.1010    2.3240   49.7597 C.ar    1  ZINC000624498741   -0.0400
      4 C4         -2.7401    2.6396   49.7681 C.ar    1  ZINC000624498741   -0.0500
      5 C5         -1.9070    2.3560   48.5824 C.2     1  ZINC000624498741    0.2300
      6 N6         -0.6671    2.7638   48.3726 N.2     1  ZINC000624498741   -0.4700
      7 C7         -0.3234    2.2673   47.1741 C.2     1  ZINC000624498741    0.1800
      8 C8          1.0021    2.4521   46.4815 C.3     1  ZINC000624498741   -0.0300
      9 C9          2.1003    1.7563   47.2881 C.3     1  ZINC000624498741   -0.1300
     10 C10         2.1295    0.2685   46.9324 C.3     1  ZINC000624498741    0.0900
     11 N11         2.8446   -0.4694   47.9766 N.am    1  ZINC000624498741   -0.5000
     12 C12         2.1440   -1.1962   48.8843 C.2     1  ZINC000624498741    0.1300
     13 C13         2.7824   -1.8860   49.8583 C.2     1  ZINC000624498741   -0.2300
     14 C14         4.1818   -1.8542   49.9362 C.2     1  ZINC000624498741   -0.0200
     15 C15         4.8840   -1.1237   49.0230 C.2     1  ZINC000624498741   -0.2400
     16 C16         4.1896   -0.4236   48.0217 C.2     1  ZINC000624498741    0.5100
     17 O17         4.8056    0.2340   47.1982 O.2     1  ZINC000624498741   -0.5500
     18 N18        -1.3407    1.5973   46.7188 N.2     1  ZINC000624498741   -0.3700
     19 O19        -2.2590    1.6292   47.5103 O.3     1  ZINC000624498741    0.0900
     20 C20        -2.1697    3.2245   50.9010 C.ar    1  ZINC000624498741   -0.0200
     21 C21        -2.9506    3.4878   52.0051 C.ar    1  ZINC000624498741   -0.1900
     22 C22        -4.3046    3.1773   51.9907 C.ar    1  ZINC000624498741    0.1300
     23 O23        -5.0707    3.4383   53.0809 O.3     1  ZINC000624498741   -0.3000
     24 C24        -5.3740    4.8091   53.3476 C.3     1  ZINC000624498741    0.6000
     25 F25        -5.8624    5.4134   52.1842 F       1  ZINC000624498741   -0.1600
     26 F26        -6.3425    4.8851   54.3543 F       1  ZINC000624498741   -0.1300
     27 F27        -4.2143    5.4706   53.7653 F       1  ZINC000624498741   -0.1600
     28 H28        -6.9103    3.1003   50.4791 H       1  ZINC000624498741    0.0800
     29 H29        -6.5121    1.3850   50.2191 H       1  ZINC000624498741    0.0800
     30 H30        -6.6686    2.0214   51.8740 H       1  ZINC000624498741    0.0800
     31 H31        -4.5456    1.8713   48.8858 H       1  ZINC000624498741    0.1500
     32 H32         0.9541    2.0176   45.4830 H       1  ZINC000624498741    0.1000
     33 H33         1.2266    3.5160   46.4044 H       1  ZINC000624498741    0.1000
     34 H34         3.0650    2.2054   47.0514 H       1  ZINC000624498741    0.0800
     35 H35         1.8975    1.8713   48.3529 H       1  ZINC000624498741    0.0800
     36 H36         1.1091   -0.1069   46.8562 H       1  ZINC000624498741    0.1100
     37 H37         2.6387    0.1329   45.9781 H       1  ZINC000624498741    0.1000
     38 H38         1.0658   -1.2242   48.8288 H       1  ZINC000624498741    0.1600
     39 H39         2.2142   -2.4601   50.5753 H       1  ZINC000624498741    0.1500
     40 H40         4.6982   -2.4017   50.7108 H       1  ZINC000624498741    0.1400
     41 H41         5.9626   -1.0870   49.0667 H       1  ZINC000624498741    0.1500
     42 H42        -1.1179    3.4696   50.9116 H       1  ZINC000624498741    0.1500
     43 H43        -2.5102    3.9398   52.8817 H       1  ZINC000624498741    0.1500
@<TRIPOS>BOND
     1     1     2    1
     2     1    28    1
     3     1    29    1
     4     1    30    1
     5     2    22   ar
     6     2     3   ar
     7     3     4   ar
     8     3    31    1
     9     4     5    1
    10     4    20   ar
    11     5    19    1
    12     5     6    2
    13     6     7    1
    14     7     8    1
    15     7    18    2
    16     8     9    1
    17     8    32    1
    18     8    33    1
    19     9    10    1
    20     9    34    1
    21     9    35    1
    22    10    11    1
    23    10    36    1
    24    10    37    1
    25    11    16   am
    26    11    12    1
    27    12    13    2
    28    12    38    1
    29    13    14    1
    30    13    39    1
    31    14    15    2
    32    14    40    1
    33    15    16    1
    34    15    41    1
    35    16    17    2
    36    18    19    1
    37    20    21   ar
    38    20    42    1
    39    21    22   ar
    40    21    43    1
    41    22    23    1
    42    23    24    1
    43    24    25    1
    44    24    26    1
    45    24    27    1
@<TRIPOS>SUBSTRUCTURE
     1 ZINC000624498741        1 TEMP              0 ****  ****    0 ROOT


##########                                Name:    ZINC001127302705
##########                DOCK_Rotatable_Bonds:                   9
##########                         Heavy_Atoms:                  28
##########                    Molecular_Weight:             398.892
##########                DOCK_Rotatable_Bonds:                   9
##########                       Formal_Charge:          -0.0200002
##########                     HBond_Acceptors:                   7
##########                        HBond_Donors:                   1
##########                         Heavy_Atoms:                  28
##########                          Grid_Score:          -31.387455
##########                     Grid_vdw_energy:          -30.832172
##########                      Grid_es_energy:           -0.555282
##########           Internal_energy_repulsive:           27.791262

@<TRIPOS>MOLECULE
ZINC001127302705
 51 53 1 0 0
SMALL
USER_CHARGES


@<TRIPOS>ATOM
      1 C1         -4.9947    2.9441   51.2347 C.3     1  ZINC001127302705   -0.1500
      2 C2         -4.4600    4.0201   52.1820 C.3     1  ZINC001127302705   -0.1400
      3 C3         -3.0584    4.4413   51.7360 C.3     1  ZINC001127302705    0.1800
      4 C4         -3.0160    5.9598   51.5540 C.3     1  ZINC001127302705   -0.1600
      5 C5         -2.0388    4.0263   52.7986 C.3     1  ZINC001127302705    0.0700
      6 O6         -2.4417    4.5378   54.0706 O.3     1  ZINC001127302705   -0.2800
      7 C7         -1.9907    3.8814   55.1694 C.ar    1  ZINC001127302705    0.3400
      8 N8         -0.7297    3.4878   55.2255 N.ar    1  ZINC001127302705   -0.5300
      9 C9         -0.2500    2.8471   56.2750 C.ar    1  ZINC001127302705    0.1400
     10 C10        -1.0549    2.5628   57.3598 C.ar    1  ZINC001127302705   -0.2000
     11 C11        -2.3853    2.9589   57.3409 C.ar    1  ZINC001127302705   -0.0300
     12 C12        -2.8574    3.6342   56.2280 C.ar    1  ZINC001127302705   -0.1100
     13 Cl13       -4.5122    4.1532   56.1500 Cl      1  ZINC001127302705   -0.0400
     14 N14        -2.7331    3.7880   50.4657 N.am    1  ZINC001127302705   -0.7100
     15 C15        -1.5145    3.9554   49.9144 C.2     1  ZINC001127302705    0.6200
     16 O16        -0.6850    4.6474   50.4721 O.2     1  ZINC001127302705   -0.5200
     17 C17        -1.1872    3.2982   48.6328 C.2     1  ZINC001127302705   -0.0200
     18 N18        -0.0371    3.3587   47.9916 N.2     1  ZINC001127302705   -0.2500
     19 N19        -0.0992    2.6699   46.9089 N.pl3   1  ZINC001127302705   -0.2800
     20 C20         0.9978    2.5148   45.9505 C.3     1  ZINC001127302705    0.1600
     21 C21         1.9651    1.4767   46.4581 C.ar    1  ZINC001127302705   -0.1200
     22 C22         3.3105    1.5803   46.1584 C.ar    1  ZINC001127302705   -0.1000
     23 C23         4.1978    0.6280   46.6240 C.ar    1  ZINC001127302705   -0.1200
     24 C24         3.7396   -0.4278   47.3896 C.ar    1  ZINC001127302705   -0.1100
     25 C25         2.3942   -0.5310   47.6901 C.ar    1  ZINC001127302705   -0.1200
     26 C26         1.5077    0.4237   47.2281 C.ar    1  ZINC001127302705   -0.0800
     27 C27        -1.3211    2.1093   46.7815 C.2     1  ZINC001127302705   -0.0200
     28 C28        -2.0466    2.4789   47.8630 C.2     1  ZINC001127302705   -0.1800
     29 H29        -4.3315    2.0793   51.2557 H       1  ZINC001127302705    0.0500
     30 H30        -5.9932    2.6440   51.5524 H       1  ZINC001127302705    0.0600
     31 H31        -5.0403    3.3425   50.2211 H       1  ZINC001127302705    0.0500
     32 H32        -5.1232    4.8849   52.1609 H       1  ZINC001127302705    0.0900
     33 H33        -4.4144    3.6217   53.1955 H       1  ZINC001127302705    0.0800
     34 H34        -3.2580    6.4460   52.4992 H       1  ZINC001127302705    0.0700
     35 H35        -2.0174    6.2600   51.2363 H       1  ZINC001127302705    0.0500
     36 H36        -3.7423    6.2555   50.7970 H       1  ZINC001127302705    0.0800
     37 H37        -1.9845    2.9386   52.8448 H       1  ZINC001127302705    0.0800
     38 H38        -1.0595    4.4283   52.5390 H       1  ZINC001127302705    0.0700
     39 H39         0.7857    2.5411   56.2850 H       1  ZINC001127302705    0.1700
     40 H40        -0.6540    2.0376   58.2140 H       1  ZINC001127302705    0.1500
     41 H41        -3.0363    2.7488   58.1767 H       1  ZINC001127302705    0.1500
     42 H42        -3.3945    3.2350   50.0214 H       1  ZINC001127302705    0.4100
     43 H43         0.5972    2.1982   44.9876 H       1  ZINC001127302705    0.1000
     44 H44         1.5153    3.4670   45.8334 H       1  ZINC001127302705    0.1100
     45 H45         3.6686    2.4052   45.5603 H       1  ZINC001127302705    0.1200
     46 H46         5.2490    0.7087   46.3893 H       1  ZINC001127302705    0.1300
     47 H47         4.4327   -1.1723   47.7528 H       1  ZINC001127302705    0.1200
     48 H48         2.0362   -1.3561   48.2879 H       1  ZINC001127302705    0.1300
     49 H49         0.4566    0.3430   47.4628 H       1  ZINC001127302705    0.1300
     50 H50        -1.6556    1.4795   45.9705 H       1  ZINC001127302705    0.1800
     51 H51        -3.0684    2.2109   48.0873 H       1  ZINC001127302705    0.1600
@<TRIPOS>BOND
     1     1     2    1
     2     1    29    1
     3     1    30    1
     4     1    31    1
     5     2     3    1
     6     2    32    1
     7     2    33    1
     8     3     4    1
     9     3     5    1
    10     3    14    1
    11     4    34    1
    12     4    35    1
    13     4    36    1
    14     5     6    1
    15     5    37    1
    16     5    38    1
    17     6     7    1
    18     7    12   ar
    19     7     8   ar
    20     8     9   ar
    21     9    10   ar
    22     9    39    1
    23    10    11   ar
    24    10    40    1
    25    11    12   ar
    26    11    41    1
    27    12    13    1
    28    14    15   am
    29    14    42    1
    30    15    16    2
    31    15    17    1
    32    17    28    1
    33    17    18    2
    34    18    19    1
    35    19    20    1
    36    19    27    1
    37    20    21    1
    38    20    43    1
    39    20    44    1
    40    21    26   ar
    41    21    22   ar
    42    22    23   ar
    43    22    45    1
    44    23    24   ar
    45    23    46    1
    46    24    25   ar
    47    24    47    1
    48    25    26   ar
    49    25    48    1
    50    26    49    1
    51    27    28    2
    52    27    50    1
    53    28    51    1
@<TRIPOS>SUBSTRUCTURE
     1 ZINC001127302705        1 TEMP              0 ****  ****    0 ROOT


##########                                Name:    ZINC001289445798
##########                DOCK_Rotatable_Bonds:                  10
##########                         Heavy_Atoms:                  25
##########                    Molecular_Weight:             352.434
##########                DOCK_Rotatable_Bonds:                  10
##########                       Formal_Charge:          0.00999932
##########                     HBond_Acceptors:                   8
##########                        HBond_Donors:                   2
##########                         Heavy_Atoms:                  25
##########                          Grid_Score:          -31.385647
##########                     Grid_vdw_energy:          -31.012407
##########                      Grid_es_energy:           -0.373239
##########           Internal_energy_repulsive:           13.782746

@<TRIPOS>MOLECULE
ZINC001289445798
 53 54 1 0 0
SMALL
USER_CHARGES


@<TRIPOS>ATOM
      1 C1          2.5109   -1.1659   49.4884 C.3     1  ZINC001289445798   -0.1500
      2 C2          2.2398   -0.3831   48.2022 C.3     1  ZINC001289445798    0.0600
      3 O3          2.8020    0.9260   48.3138 O.3     1  ZINC001289445798   -0.3700
      4 C4          1.9411    1.8765   48.9440 C.3     1  ZINC001289445798    0.1100
      5 H5          1.2051    1.3521   49.5533 H       1  ZINC001289445798    0.0700
      6 C6          1.2227    2.7016   47.8742 C.3     1  ZINC001289445798   -0.1400
      7 C7         -0.1698    2.1614   47.6741 C.2     1  ZINC001289445798    0.5400
      8 O8         -0.3836    1.3428   46.8051 O.2     1  ZINC001289445798   -0.5200
      9 N9         -1.1776    2.5880   48.4607 N.am    1  ZINC001289445798   -0.6200
     10 C10        -2.5758    2.1407   48.3800 C.3     1  ZINC001289445798    0.1000
     11 C11        -3.3569    2.8760   49.4894 C.3     1  ZINC001289445798    0.1400
     12 H12        -3.8482    3.7638   49.0916 H       1  ZINC001289445798    0.1200
     13 N13        -4.3339    1.9816   50.1153 N.am    1  ZINC001289445798   -0.7200
     14 C14        -5.4131    2.4937   50.7394 C.2     1  ZINC001289445798    0.6000
     15 O15        -5.5752    3.6983   50.7843 O.2     1  ZINC001289445798   -0.5100
     16 C16        -6.3956    1.5953   51.3666 C.2     1  ZINC001289445798   -0.0500
     17 C17        -7.3710    1.9424   52.2852 C.2     1  ZINC001289445798   -0.1400
     18 C18        -8.0436    0.7538   52.5776 C.2     1  ZINC001289445798    0.0000
     19 N19        -7.4915   -0.2029   51.8760 N.2     1  ZINC001289445798   -0.2700
     20 N20        -6.5315    0.2527   51.1544 N.pl3   1  ZINC001289445798   -0.3800
     21 C21        -2.2434    3.2694   50.4959 C.3     1  ZINC001289445798    0.0700
     22 H22        -2.0043    2.4378   51.1587 H       1  ZINC001289445798    0.0900
     23 O23        -2.6165    4.4274   51.2456 O.3     1  ZINC001289445798   -0.3700
     24 C24        -2.4248    4.2937   52.6553 C.3     1  ZINC001289445798    0.0300
     25 C25        -1.0593    3.5755   49.5489 C.3     1  ZINC001289445798    0.0800
     26 C26         2.7705    2.8054   49.8328 C.3     1  ZINC001289445798   -0.1100
     27 C27         3.3090    2.0193   51.0298 C.3     1  ZINC001289445798   -0.1500
     28 C28         3.9409    3.3719   49.0265 C.3     1  ZINC001289445798   -0.1500
     29 H29         2.0571   -0.6465   50.3324 H       1  ZINC001289445798    0.0600
     30 H30         2.0821   -2.1644   49.4032 H       1  ZINC001289445798    0.0700
     31 H31         3.5864   -1.2447   49.6459 H       1  ZINC001289445798    0.0600
     32 H32         2.6935   -0.9025   47.3581 H       1  ZINC001289445798    0.0500
     33 H33         1.1641   -0.3043   48.0446 H       1  ZINC001289445798    0.0500
     34 H34         1.1663    3.7419   48.1949 H       1  ZINC001289445798    0.1100
     35 H35         1.7747    2.6399   46.9363 H       1  ZINC001289445798    0.1000
     36 H36        -2.9904    2.3945   47.4043 H       1  ZINC001289445798    0.0800
     37 H37        -2.6304    1.0639   48.5395 H       1  ZINC001289445798    0.0800
     38 H38        -4.2041    1.0210   50.0807 H       1  ZINC001289445798    0.4000
     39 H39        -7.5697    2.9239   52.6898 H       1  ZINC001289445798    0.1700
     40 H40        -8.8720    0.6438   53.2617 H       1  ZINC001289445798    0.1900
     41 H41        -5.9824   -0.2769   50.5554 H       1  ZINC001289445798    0.4400
     42 H42        -2.7311    5.2141   53.1526 H       1  ZINC001289445798    0.0900
     43 H43        -3.0253    3.4631   53.0265 H       1  ZINC001289445798    0.0400
     44 H44        -1.3720    4.1020   52.8623 H       1  ZINC001289445798    0.0500
     45 H45        -0.1121    3.4543   50.0745 H       1  ZINC001289445798    0.0900
     46 H46        -1.1452    4.5856   49.1483 H       1  ZINC001289445798    0.0900
     47 H47         2.1440    3.6238   50.1877 H       1  ZINC001289445798    0.0800
     48 H48         3.9356    1.2010   50.6749 H       1  ZINC001289445798    0.0600
     49 H49         3.9000    2.6811   51.6630 H       1  ZINC001289445798    0.0600
     50 H50         2.4752    1.6157   51.6043 H       1  ZINC001289445798    0.0600
     51 H51         3.5583    4.0121   48.2316 H       1  ZINC001289445798    0.0600
     52 H52         4.5864    3.9548   49.6834 H       1  ZINC001289445798    0.0600
     53 H53         4.5118    2.5525   48.5898 H       1  ZINC001289445798    0.0500
@<TRIPOS>BOND
     1     1     2    1
     2     1    29    1
     3     1    30    1
     4     1    31    1
     5     2     3    1
     6     2    32    1
     7     2    33    1
     8     3     4    1
     9     4     5    1
    10     4     6    1
    11     4    26    1
    12     6     7    1
    13     6    34    1
    14     6    35    1
    15     7     8    2
    16     7     9   am
    17     9    25    1
    18     9    10    1
    19    10    11    1
    20    10    36    1
    21    10    37    1
    22    11    12    1
    23    11    13    1
    24    11    21    1
    25    13    14   am
    26    13    38    1
    27    14    15    2
    28    14    16    1
    29    16    20    1
    30    16    17    2
    31    17    18    1
    32    17    39    1
    33    18    19    2
    34    18    40    1
    35    19    20    1
    36    20    41    1
    37    21    22    1
    38    21    23    1
    39    21    25    1
    40    23    24    1
    41    24    42    1
    42    24    43    1
    43    24    44    1
    44    25    45    1
    45    25    46    1
    46    26    27    1
    47    26    28    1
    48    26    47    1
    49    27    48    1
    50    27    49    1
    51    27    50    1
    52    28    51    1
    53    28    52    1
    54    28    53    1
@<TRIPOS>SUBSTRUCTURE
     1 ZINC001289445798        1 TEMP              0 ****  ****    0 ROOT


##########                                Name:    ZINC001386869844
##########                DOCK_Rotatable_Bonds:                   9
##########                         Heavy_Atoms:                  25
##########                    Molecular_Weight:             345.485
##########                DOCK_Rotatable_Bonds:                   9
##########                       Formal_Charge:          -0.0300003
##########                     HBond_Acceptors:                   5
##########                        HBond_Donors:                   2
##########                         Heavy_Atoms:                  25
##########                          Grid_Score:          -31.370049
##########                     Grid_vdw_energy:          -31.166094
##########                      Grid_es_energy:           -0.203956
##########           Internal_energy_repulsive:           32.833492

@<TRIPOS>MOLECULE
ZINC001386869844
 56 58 1 0 0
SMALL
USER_CHARGES


@<TRIPOS>ATOM
      1 C1         -2.3210    3.8233   51.5883 C.3     1  ZINC001386869844    0.0600
      2 N2         -2.2120    3.2053   50.2645 N.am    1  ZINC001386869844   -0.6200
      3 C3         -0.9634    3.3140   49.5061 C.3     1  ZINC001386869844    0.1100
      4 C4          0.2192    2.9924   50.4219 C.3     1  ZINC001386869844    0.1000
      5 N5          1.4129    2.7453   49.6093 N.am    1  ZINC001386869844   -0.7300
      6 C6          2.4192    1.9951   50.1007 C.2     1  ZINC001386869844    0.5200
      7 O7          2.3385    1.5289   51.2173 O.2     1  ZINC001386869844   -0.5300
      8 C8          3.6471    1.7409   49.2648 C.3     1  ZINC001386869844   -0.1300
      9 C9          3.7435    0.2487   48.9409 C.3     1  ZINC001386869844   -0.0100
     10 C10         4.2562    0.0693   47.5106 C.3     1  ZINC001386869844   -0.1500
     11 C11         4.7105   -0.4237   49.9175 C.3     1  ZINC001386869844   -0.1600
     12 C12         2.3600   -0.3917   49.0710 C.3     1  ZINC001386869844   -0.1500
     13 C13         2.1341   -1.3544   50.2385 C.3     1  ZINC001386869844   -0.1900
     14 C14         2.2505   -1.8956   48.8113 C.3     1  ZINC001386869844   -0.1800
     15 C15        -3.2604    2.5369   49.7444 C.2     1  ZINC001386869844    0.5900
     16 O16        -3.1699    2.0237   48.6448 O.2     1  ZINC001386869844   -0.5200
     17 C17        -4.5106    2.4282   50.5039 C.2     1  ZINC001386869844   -0.0600
     18 C18        -5.2986    3.4780   50.9318 C.2     1  ZINC001386869844   -0.0900
     19 C19        -6.3809    2.9237   51.6103 C.2     1  ZINC001386869844   -0.1700
     20 C20        -6.2429    1.5713   51.5896 C.2     1  ZINC001386869844    0.0500
     21 C21        -7.2221    0.6158   52.2291 C.3     1  ZINC001386869844   -0.0600
     22 C22        -8.0963    1.4041   53.2116 C.3     1  ZINC001386869844   -0.1100
     23 C23        -8.6596    2.6448   52.5134 C.3     1  ZINC001386869844   -0.1200
     24 C24        -7.5282    3.6502   52.2668 C.3     1  ZINC001386869844   -0.0500
     25 N25        -5.1148    1.2598   50.9142 N.pl3   1  ZINC001386869844   -0.5400
     26 H26        -2.7905    4.8025   51.4947 H       1  ZINC001386869844    0.0600
     27 H27        -2.9275    3.1901   52.2360 H       1  ZINC001386869844    0.0800
     28 H28        -1.3264    3.9369   52.0193 H       1  ZINC001386869844    0.0900
     29 H29        -0.8594    4.3285   49.1211 H       1  ZINC001386869844    0.1000
     30 H30        -0.9810    2.6098   48.6743 H       1  ZINC001386869844    0.0900
     31 H31        -0.0089    2.1046   51.0116 H       1  ZINC001386869844    0.0700
     32 H32         0.4018    3.8348   51.0890 H       1  ZINC001386869844    0.0700
     33 H33         1.4792    3.1216   48.7178 H       1  ZINC001386869844    0.4000
     34 H34         3.5799    2.3103   48.3378 H       1  ZINC001386869844    0.0900
     35 H35         4.5337    2.0506   49.8180 H       1  ZINC001386869844    0.0900
     36 H36         5.2417    0.5255   47.4180 H       1  ZINC001386869844    0.0800
     37 H37         4.3248   -0.9939   47.2799 H       1  ZINC001386869844    0.0500
     38 H38         3.5672    0.5483   46.8149 H       1  ZINC001386869844    0.0500
     39 H39         4.3453   -0.2959   50.9364 H       1  ZINC001386869844    0.0500
     40 H40         4.7792   -1.4868   49.6868 H       1  ZINC001386869844    0.0500
     41 H41         5.6961    0.0325   49.8249 H       1  ZINC001386869844    0.0800
     42 H42         1.5216    0.2341   48.7652 H       1  ZINC001386869844    0.1000
     43 H43         2.9710   -1.5315   50.9139 H       1  ZINC001386869844    0.1000
     44 H44         1.1469   -1.3621   50.7007 H       1  ZINC001386869844    0.0900
     45 H45         1.3399   -2.2591   48.3352 H       1  ZINC001386869844    0.0900
     46 H46         3.1640   -2.4287   48.5479 H       1  ZINC001386869844    0.0900
     47 H47        -5.1109    4.5294   50.7713 H       1  ZINC001386869844    0.1500
     48 H48        -7.8495    0.1642   51.4606 H       1  ZINC001386869844    0.0800
     49 H49        -6.6788   -0.1629   52.7645 H       1  ZINC001386869844    0.0800
     50 H50        -8.9181    0.7744   53.5523 H       1  ZINC001386869844    0.0700
     51 H51        -7.4949    1.7106   54.0674 H       1  ZINC001386869844    0.0700
     52 H52        -9.1030    2.3557   51.5606 H       1  ZINC001386869844    0.0600
     53 H53        -9.4214    3.1024   53.1446 H       1  ZINC001386869844    0.0700
     54 H54        -7.1998    4.0733   53.2161 H       1  ZINC001386869844    0.0700
     55 H55        -7.8813    4.4468   51.6118 H       1  ZINC001386869844    0.0700
     56 H56        -4.7842    0.3631   50.7479 H       1  ZINC001386869844    0.4200
@<TRIPOS>BOND
     1     1     2    1
     2     1    26    1
     3     1    27    1
     4     1    28    1
     5     2     3    1
     6     2    15   am
     7     3     4    1
     8     3    29    1
     9     3    30    1
    10     4     5    1
    11     4    31    1
    12     4    32    1
    13     5     6   am
    14     5    33    1
    15     6     7    2
    16     6     8    1
    17     8     9    1
    18     8    34    1
    19     8    35    1
    20     9    10    1
    21     9    11    1
    22     9    12    1
    23    10    36    1
    24    10    37    1
    25    10    38    1
    26    11    39    1
    27    11    40    1
    28    11    41    1
    29    12    14    1
    30    12    13    1
    31    12    42    1
    32    13    14    1
    33    13    43    1
    34    13    44    1
    35    14    45    1
    36    14    46    1
    37    15    16    2
    38    15    17    1
    39    17    25    1
    40    17    18    2
    41    18    19    1
    42    18    47    1
    43    19    24    1
    44    19    20    2
    45    20    21    1
    46    20    25    1
    47    21    22    1
    48    21    48    1
    49    21    49    1
    50    22    23    1
    51    22    50    1
    52    22    51    1
    53    23    24    1
    54    23    52    1
    55    23    53    1
    56    24    54    1
    57    24    55    1
    58    25    56    1
@<TRIPOS>SUBSTRUCTURE
     1 ZINC001386869844        1 TEMP              0 ****  ****    0 ROOT


##########                                Name:    ZINC000550217006
##########                DOCK_Rotatable_Bonds:                   7
##########                         Heavy_Atoms:                  27
##########                    Molecular_Weight:             367.404
##########                DOCK_Rotatable_Bonds:                   7
##########                       Formal_Charge:          0.00999951
##########                     HBond_Acceptors:                   7
##########                        HBond_Donors:                   3
##########                         Heavy_Atoms:                  27
##########                          Grid_Score:          -31.356365
##########                     Grid_vdw_energy:          -29.701088
##########                      Grid_es_energy:           -1.655276
##########           Internal_energy_repulsive:           10.051399

@<TRIPOS>MOLECULE
ZINC000550217006
 48 50 1 0 0
SMALL
USER_CHARGES


@<TRIPOS>ATOM
      1 C1         -5.6648    4.4915   57.0358 C.3     1  ZINC000550217006   -0.1500
      2 C2         -4.2790    3.8458   57.0972 C.3     1  ZINC000550217006    0.0500
      3 O3         -3.5936    4.0707   55.8636 O.3     1  ZINC000550217006   -0.3100
      4 C4         -2.3129    3.6238   55.7790 C.ar    1  ZINC000550217006    0.1400
      5 C5         -1.7915    2.8163   56.7790 C.ar    1  ZINC000550217006   -0.2100
      6 C6         -0.4893    2.3627   56.6904 C.ar    1  ZINC000550217006   -0.0800
      7 C7          0.2938    2.7137   55.6066 C.ar    1  ZINC000550217006   -0.1600
      8 C8         -0.2236    3.5190   54.6086 C.ar    1  ZINC000550217006   -0.0700
      9 C9         -1.5267    3.9699   54.6894 C.ar    1  ZINC000550217006   -0.1200
     10 C10        -2.0901    4.8471   53.6012 C.3     1  ZINC000550217006   -0.0800
     11 C11        -2.7541    3.9737   52.5348 C.3     1  ZINC000550217006    0.1300
     12 N12        -1.7292    3.4351   51.6372 N.am    1  ZINC000550217006   -0.7200
     13 C13        -2.0696    3.0075   50.4052 C.2     1  ZINC000550217006    0.5600
     14 O14        -3.2270    3.0673   50.0395 O.2     1  ZINC000550217006   -0.5300
     15 C15        -1.0335    2.4647   49.4974 C.ar    1  ZINC000550217006   -0.0800
     16 C16        -1.2600    2.4272   48.1195 C.ar    1  ZINC000550217006   -0.1000
     17 C17        -0.2969    1.9218   47.2810 C.ar    1  ZINC000550217006   -0.0500
     18 C18         0.9196    1.4403   47.7923 C.ar    1  ZINC000550217006   -0.1300
     19 C19         1.1508    1.4791   49.1669 C.ar    1  ZINC000550217006    0.1800
     20 C20         0.1686    1.9968   50.0132 C.ar    1  ZINC000550217006   -0.0900
     21 N21         2.3233    1.0373   49.7558 N.am    1  ZINC000550217006   -0.6600
     22 C22         2.9958   -0.0583   49.4166 C.2     1  ZINC000550217006    0.5100
     23 O23         3.9885   -0.3576   50.0456 O.2     1  ZINC000550217006   -0.5100
     24 C24         2.5616   -0.9375   48.2760 C.3     1  ZINC000550217006    0.0900
     25 N25         2.6444   -0.1726   47.0318 N.am    1  ZINC000550217006   -0.7100
     26 C26         1.8966    0.9109   46.8298 C.2     1  ZINC000550217006    0.5600
     27 O27         2.0311    1.5029   45.7767 O.2     1  ZINC000550217006   -0.5200
     28 H28        -6.2349    4.0511   56.2178 H       1  ZINC000550217006    0.0700
     29 H29        -6.1875    4.3200   57.9767 H       1  ZINC000550217006    0.0800
     30 H30        -5.5590    5.5635   56.8690 H       1  ZINC000550217006    0.0700
     31 H31        -3.7089    4.2863   57.9151 H       1  ZINC000550217006    0.0600
     32 H32        -4.3848    2.7738   57.2639 H       1  ZINC000550217006    0.0600
     33 H33        -2.4027    2.5424   57.6263 H       1  ZINC000550217006    0.1300
     34 H34        -0.0829    1.7340   57.4688 H       1  ZINC000550217006    0.1300
     35 H35         1.3115    2.3585   55.5393 H       1  ZINC000550217006    0.1300
     36 H36         0.3903    3.7921   53.7630 H       1  ZINC000550217006    0.1300
     37 H37        -2.8294    5.5251   54.0276 H       1  ZINC000550217006    0.0800
     38 H38        -1.2853    5.4257   53.1477 H       1  ZINC000550217006    0.0800
     39 H39        -3.2837    3.1517   53.0164 H       1  ZINC000550217006    0.0700
     40 H40        -3.4601    4.5743   51.9612 H       1  ZINC000550217006    0.0700
     41 H41        -0.8055    3.3862   51.9295 H       1  ZINC000550217006    0.4000
     42 H42        -2.1912    2.7948   47.7142 H       1  ZINC000550217006    0.1400
     43 H43        -0.4770    1.8940   46.2165 H       1  ZINC000550217006    0.1500
     44 H44         0.3415    2.0263   51.0789 H       1  ZINC000550217006    0.1500
     45 H45         2.6857    1.5737   50.4782 H       1  ZINC000550217006    0.4200
     46 H46         3.2169   -1.8064   48.2148 H       1  ZINC000550217006    0.1300
     47 H47         1.5340   -1.2633   48.4368 H       1  ZINC000550217006    0.1000
     48 H48         3.2581   -0.4608   46.3382 H       1  ZINC000550217006    0.4200
@<TRIPOS>BOND
     1     1     2    1
     2     1    28    1
     3     1    29    1
     4     1    30    1
     5     2     3    1
     6     2    31    1
     7     2    32    1
     8     3     4    1
     9     4     9   ar
    10     4     5   ar
    11     5     6   ar
    12     5    33    1
    13     6     7   ar
    14     6    34    1
    15     7     8   ar
    16     7    35    1
    17     8     9   ar
    18     8    36    1
    19     9    10    1
    20    10    11    1
    21    10    37    1
    22    10    38    1
    23    11    12    1
    24    11    39    1
    25    11    40    1
    26    12    13   am
    27    12    41    1
    28    13    14    2
    29    13    15    1
    30    15    20   ar
    31    15    16   ar
    32    16    17   ar
    33    16    42    1
    34    17    18   ar
    35    17    43    1
    36    18    26    1
    37    18    19   ar
    38    19    20   ar
    39    19    21    1
    40    20    44    1
    41    21    22   am
    42    21    45    1
    43    22    23    2
    44    22    24    1
    45    24    25    1
    46    24    46    1
    47    24    47    1
    48    25    26   am
    49    25    48    1
    50    26    27    2
@<TRIPOS>SUBSTRUCTURE
     1 ZINC000550217006        1 TEMP              0 ****  ****    0 ROOT


##########                                Name:    ZINC000281257088
##########                DOCK_Rotatable_Bonds:                   8
##########                         Heavy_Atoms:                  27
##########                    Molecular_Weight:             395.541
##########                DOCK_Rotatable_Bonds:                   8
##########                       Formal_Charge:          -0.0200005
##########                     HBond_Acceptors:                   7
##########                        HBond_Donors:                   1
##########                         Heavy_Atoms:                  27
##########                          Grid_Score:          -31.343388
##########                     Grid_vdw_energy:          -30.773483
##########                      Grid_es_energy:           -0.569904
##########           Internal_energy_repulsive:           21.861887

@<TRIPOS>MOLECULE
ZINC000281257088
 57 58 1 0 0
SMALL
USER_CHARGES


@<TRIPOS>ATOM
      1 C1         -1.8986    1.9035   47.0853 C.3     1  ZINC000281257088   -0.0700
      2 C2         -2.3286    2.3500   48.4588 C.2     1  ZINC000281257088    0.1000
      3 N3         -3.4073    1.9614   49.0891 N.2     1  ZINC000281257088   -0.3000
      4 N4         -3.4426    2.6039   50.3334 N.pl3   1  ZINC000281257088   -0.3700
      5 C5         -4.4826    2.4500   51.3537 C.3     1  ZINC000281257088    0.1500
      6 C6         -5.6571    1.6622   50.7700 C.3     1  ZINC000281257088   -0.6400
      7 S7         -7.1382    1.9496   51.7772 S.o2    1  ZINC000281257088    2.4300
      8 C8         -8.0192    3.1986   50.8002 C.3     1  ZINC000281257088   -0.6500
      9 O9         -7.9127    0.7584   51.7935 O.2     1  ZINC000281257088   -0.9300
     10 O10        -6.7411    2.5360   53.0092 O.2     1  ZINC000281257088   -0.9300
     11 C11        -2.3493    3.3896   50.4263 C.2     1  ZINC000281257088    0.0900
     12 C12        -1.9807    4.2644   51.5968 C.3     1  ZINC000281257088   -0.1000
     13 C13        -1.6405    3.2468   49.2825 C.2     1  ZINC000281257088   -0.2300
     14 C14        -0.3434    3.9388   48.9512 C.3     1  ZINC000281257088    0.1400
     15 N15         0.7068    3.4757   49.8680 N.3     1  ZINC000281257088   -0.6700
     16 C16         1.9478    3.1791   49.1402 C.3     1  ZINC000281257088    0.1400
     17 H17         1.9141    3.6497   48.1575 H       1  ZINC000281257088    0.0500
     18 C18         2.0910    1.6877   48.9780 C.ar    1  ZINC000281257088   -0.0800
     19 C19         1.5881    0.8365   49.9443 C.ar    1  ZINC000281257088   -0.0600
     20 C20         1.7188   -0.5314   49.7967 C.ar    1  ZINC000281257088   -0.1600
     21 C21         2.3533   -1.0492   48.6804 C.ar    1  ZINC000281257088    0.1000
     22 F22         2.4812   -2.3862   48.5347 F       1  ZINC000281257088   -0.1400
     23 C23         2.8561   -0.1958   47.7130 C.ar    1  ZINC000281257088   -0.1600
     24 C24         2.7200    1.1716   47.8604 C.ar    1  ZINC000281257088   -0.0900
     25 C25         3.1424    3.7236   49.9258 C.3     1  ZINC000281257088   -0.0600
     26 C26         4.4291    3.4716   49.1373 C.3     1  ZINC000281257088   -0.1400
     27 C27         2.9654    5.2274   50.1460 C.3     1  ZINC000281257088   -0.1400
     28 C28         3.2274    3.0164   51.2799 C.3     1  ZINC000281257088   -0.1500
     29 H29        -1.2748    1.0137   47.1713 H       1  ZINC000281257088    0.0800
     30 H30        -2.7792    1.6733   46.4857 H       1  ZINC000281257088    0.0700
     31 H31        -1.3305    2.7005   46.6054 H       1  ZINC000281257088    0.0800
     32 H32        -4.0748    1.9130   52.2101 H       1  ZINC000281257088    0.1100
     33 H33        -4.8274    3.4338   51.6723 H       1  ZINC000281257088    0.1100
     34 H34        -5.8434    1.9917   49.7478 H       1  ZINC000281257088    0.1400
     35 H35        -5.4178    0.5989   50.7710 H       1  ZINC000281257088    0.1400
     36 H36        -8.2449    2.7949   49.8132 H       1  ZINC000281257088    0.1300
     37 H37        -8.9479    3.4657   51.3047 H       1  ZINC000281257088    0.1300
     38 H38        -7.3943    4.0855   50.6958 H       1  ZINC000281257088    0.1300
     39 H39        -1.3678    3.6960   52.2964 H       1  ZINC000281257088    0.0800
     40 H40        -1.4200    5.1290   51.2418 H       1  ZINC000281257088    0.0900
     41 H41        -2.8879    4.6008   52.0988 H       1  ZINC000281257088    0.0700
     42 H42        -0.0588    3.7053   47.9252 H       1  ZINC000281257088    0.0800
     43 H43        -0.4690    5.0163   49.0572 H       1  ZINC000281257088    0.0300
     44 H44         0.8698    4.1495   50.6011 H       1  ZINC000281257088    0.3400
     45 H45         1.0932    1.2406   50.8151 H       1  ZINC000281257088    0.1400
     46 H46         1.3264   -1.1961   50.5521 H       1  ZINC000281257088    0.1300
     47 H47         3.3514   -0.5986   46.8419 H       1  ZINC000281257088    0.1300
     48 H48         3.1119    1.8375   47.1058 H       1  ZINC000281257088    0.1300
     49 H49         4.3686    3.9755   48.1726 H       1  ZINC000281257088    0.0600
     50 H50         5.2802    3.8596   49.6970 H       1  ZINC000281257088    0.0500
     51 H51         4.5552    2.4004   48.9804 H       1  ZINC000281257088    0.0600
     52 H52         2.0488    5.4069   50.7078 H       1  ZINC000281257088    0.0500
     53 H53         3.8164    5.6153   50.7058 H       1  ZINC000281257088    0.0600
     54 H54         2.9049    5.7311   49.1813 H       1  ZINC000281257088    0.0600
     55 H55         3.4312    1.9571   51.1244 H       1  ZINC000281257088    0.0500
     56 H56         4.0300    3.4580   51.8707 H       1  ZINC000281257088    0.0600
     57 H57         2.2814    3.1306   51.8094 H       1  ZINC000281257088    0.0600
@<TRIPOS>BOND
     1     1     2    1
     2     1    29    1
     3     1    30    1
     4     1    31    1
     5     2    13    1
     6     2     3    2
     7     3     4    1
     8     4     5    1
     9     4    11    1
    10     5     6    1
    11     5    32    1
    12     5    33    1
    13     6     7    1
    14     6    34    1
    15     6    35    1
    16     7     8    1
    17     7     9    2
    18     7    10    2
    19     8    36    1
    20     8    37    1
    21     8    38    1
    22    11    12    1
    23    11    13    2
    24    12    39    1
    25    12    40    1
    26    12    41    1
    27    13    14    1
    28    14    15    1
    29    14    42    1
    30    14    43    1
    31    15    16    1
    32    15    44    1
    33    16    17    1
    34    16    18    1
    35    16    25    1
    36    18    24   ar
    37    18    19   ar
    38    19    20   ar
    39    19    45    1
    40    20    21   ar
    41    20    46    1
    42    21    22    1
    43    21    23   ar
    44    23    24   ar
    45    23    47    1
    46    24    48    1
    47    25    26    1
    48    25    27    1
    49    25    28    1
    50    26    49    1
    51    26    50    1
    52    26    51    1
    53    27    52    1
    54    27    53    1
    55    27    54    1
    56    28    55    1
    57    28    56    1
    58    28    57    1
@<TRIPOS>SUBSTRUCTURE
     1 ZINC000281257088        1 TEMP              0 ****  ****    0 ROOT


##########                                Name:    ZINC000892249927
##########                DOCK_Rotatable_Bonds:                   8
##########                         Heavy_Atoms:                  27
##########                    Molecular_Weight:             364.487
##########                DOCK_Rotatable_Bonds:                   8
##########                       Formal_Charge:          -0.0300015
##########                     HBond_Acceptors:                   4
##########                        HBond_Donors:                   1
##########                         Heavy_Atoms:                  27
##########                          Grid_Score:          -31.331713
##########                     Grid_vdw_energy:          -30.097408
##########                      Grid_es_energy:           -1.234305
##########           Internal_energy_repulsive:            9.859426

@<TRIPOS>MOLECULE
ZINC000892249927
 55 58 1 0 0
SMALL
USER_CHARGES


@<TRIPOS>ATOM
      1 O1         -7.3447    4.9512   54.1371 O.2     1  ZINC000892249927   -0.5300
      2 C2         -6.9235    3.8495   54.4194 C.2     1  ZINC000892249927    0.5100
      3 C3         -6.8111    3.4330   55.8634 C.3     1  ZINC000892249927   -0.1400
      4 C4         -8.0835    2.6932   56.2813 C.3     1  ZINC000892249927   -0.1000
      5 C5         -8.0566    2.4449   57.7908 C.3     1  ZINC000892249927   -0.0800
      6 C6         -8.8084    1.1770   58.1047 C.ar    1  ZINC000892249927   -0.0900
      7 C7         -8.2504    0.2330   58.9464 C.ar    1  ZINC000892249927   -0.1100
      8 C8         -8.9400   -0.9300   59.2344 C.ar    1  ZINC000892249927   -0.1100
      9 C9        -10.1877   -1.1487   58.6812 C.ar    1  ZINC000892249927   -0.0500
     10 C10       -10.9392   -2.4167   58.9948 C.3     1  ZINC000892249927   -0.1200
     11 C11       -11.8683   -2.9729   57.9139 C.3     1  ZINC000892249927   -0.1800
     12 C12       -10.5470   -3.6791   58.2246 C.3     1  ZINC000892249927   -0.1700
     13 C13       -10.7463   -0.2040   57.8407 C.ar    1  ZINC000892249927   -0.1200
     14 C14       -10.0584    0.9607   57.5557 C.ar    1  ZINC000892249927   -0.1100
     15 N15        -6.5611    2.9955   53.4417 N.am    1  ZINC000892249927   -0.7300
     16 C16        -6.6703    3.4004   52.0381 C.3     1  ZINC000892249927    0.1400
     17 H17        -7.3376    4.2584   51.9568 H       1  ZINC000892249927    0.1000
     18 C18        -7.2276    2.2377   51.2112 C.3     1  ZINC000892249927   -0.1700
     19 C19        -6.2462    1.0641   51.2691 C.3     1  ZINC000892249927    0.0600
     20 O20        -4.9696    1.4881   50.7869 O.3     1  ZINC000892249927   -0.3700
     21 C21        -4.3781    2.5416   51.5501 C.3     1  ZINC000892249927    0.1400
     22 H22        -4.2576    2.2180   52.5839 H       1  ZINC000892249927    0.0700
     23 C23        -3.0302    2.8861   50.9708 C.ar    1  ZINC000892249927   -0.1400
     24 C24        -1.9676    3.1997   51.8039 C.ar    1  ZINC000892249927   -0.0700
     25 C25        -0.7455    3.5099   51.2267 C.ar    1  ZINC000892249927   -0.1700
     26 C26        -0.6283    3.4962   49.8499 C.ar    1  ZINC000892249927    0.1000
     27 N27        -1.6612    3.1930   49.0879 N.ar    1  ZINC000892249927   -0.4900
     28 C28        -2.8363    2.8878   49.6022 C.ar    1  ZINC000892249927    0.1300
     29 C29        -5.2848    3.7767   51.5040 C.3     1  ZINC000892249927   -0.1500
     30 H30        -5.9511    2.7744   55.9858 H       1  ZINC000892249927    0.0900
     31 H31        -6.6834    4.3173   56.4878 H       1  ZINC000892249927    0.0900
     32 H32        -8.9548    3.2971   56.0277 H       1  ZINC000892249927    0.0700
     33 H33        -8.1378    1.7391   55.7570 H       1  ZINC000892249927    0.0700
     34 H34        -7.0237    2.3469   58.1246 H       1  ZINC000892249927    0.0700
     35 H35        -8.5270    3.2829   58.3052 H       1  ZINC000892249927    0.0700
     36 H36        -7.2755    0.4039   59.3786 H       1  ZINC000892249927    0.1200
     37 H37        -8.5036   -1.6679   59.8914 H       1  ZINC000892249927    0.1200
     38 H38       -11.2470   -2.5361   60.0336 H       1  ZINC000892249927    0.1100
     39 H39       -12.7876   -3.4584   58.2415 H       1  ZINC000892249927    0.1000
     40 H40       -11.9359   -2.4218   56.9759 H       1  ZINC000892249927    0.1000
     41 H41        -9.7455   -3.5926   57.4910 H       1  ZINC000892249927    0.1000
     42 H42       -10.5972   -4.6292   58.7565 H       1  ZINC000892249927    0.1000
     43 H43       -11.7214   -0.3747   57.4087 H       1  ZINC000892249927    0.1200
     44 H44       -10.4949    1.6987   56.8990 H       1  ZINC000892249927    0.1200
     45 H45        -6.2280    2.1129   53.6675 H       1  ZINC000892249927    0.4000
     46 H46        -8.1897    1.9285   51.6197 H       1  ZINC000892249927    0.0800
     47 H47        -7.3553    2.5549   50.1762 H       1  ZINC000892249927    0.0800
     48 H48        -6.1501    0.7212   52.2993 H       1  ZINC000892249927    0.0500
     49 H49        -6.6172    0.2491   50.6476 H       1  ZINC000892249927    0.1000
     50 H50        -2.0888    3.2028   52.8772 H       1  ZINC000892249927    0.1300
     51 H51         0.1039    3.7593   51.8454 H       1  ZINC000892249927    0.1400
     52 H52         0.3199    3.7369   49.3925 H       1  ZINC000892249927    0.1600
     53 H53        -3.6592    2.6448   48.9462 H       1  ZINC000892249927    0.1600
     54 H54        -5.3732    4.1255   50.4751 H       1  ZINC000892249927    0.0900
     55 H55        -4.8565    4.5661   52.1217 H       1  ZINC000892249927    0.0800
@<TRIPOS>BOND
     1     1     2    2
     2     2     3    1
     3     2    15   am
     4     3     4    1
     5     3    30    1
     6     3    31    1
     7     4     5    1
     8     4    32    1
     9     4    33    1
    10     5     6    1
    11     5    34    1
    12     5    35    1
    13     6    14   ar
    14     6     7   ar
    15     7     8   ar
    16     7    36    1
    17     8     9   ar
    18     8    37    1
    19     9    10    1
    20     9    13   ar
    21    10    12    1
    22    10    11    1
    23    10    38    1
    24    11    12    1
    25    11    39    1
    26    11    40    1
    27    12    41    1
    28    12    42    1
    29    13    14   ar
    30    13    43    1
    31    14    44    1
    32    15    16    1
    33    15    45    1
    34    16    17    1
    35    16    29    1
    36    16    18    1
    37    18    19    1
    38    18    46    1
    39    18    47    1
    40    19    20    1
    41    19    48    1
    42    19    49    1
    43    20    21    1
    44    21    22    1
    45    21    23    1
    46    21    29    1
    47    23    28   ar
    48    23    24   ar
    49    24    25   ar
    50    24    50    1
    51    25    26   ar
    52    25    51    1
    53    26    27   ar
    54    26    52    1
    55    27    28   ar
    56    28    53    1
    57    29    54    1
    58    29    55    1
@<TRIPOS>SUBSTRUCTURE
     1 ZINC000892249927        1 TEMP              0 ****  ****    0 ROOT


##########                                Name:    ZINC000020646552
##########                DOCK_Rotatable_Bonds:                   5
##########                         Heavy_Atoms:                  29
##########                    Molecular_Weight:             412.556
##########                DOCK_Rotatable_Bonds:                   5
##########                       Formal_Charge:          -0.0200012
##########                     HBond_Acceptors:                   7
##########                        HBond_Donors:                   0
##########                         Heavy_Atoms:                  29
##########                          Grid_Score:          -31.311754
##########                     Grid_vdw_energy:          -30.290140
##########                      Grid_es_energy:           -1.021614
##########           Internal_energy_repulsive:           14.316790

@<TRIPOS>MOLECULE
ZINC000020646552
 57 60 1 0 0
SMALL
USER_CHARGES


@<TRIPOS>ATOM
      1 C1         -0.0267    1.7477   59.9864 C.3     1  ZINC000020646552    0.0200
      2 N2          0.1861    2.4524   58.7152 N.3     1  ZINC000020646552   -0.5400
      3 C3          0.1111    3.9076   58.9010 C.3     1  ZINC000020646552    0.0400
      4 C4          0.5154    4.6070   57.5988 C.3     1  ZINC000020646552    0.1200
      5 N5         -0.3138    4.0760   56.5063 N.am    1  ZINC000020646552   -0.6100
      6 C6         -0.9788    4.9046   55.6769 C.2     1  ZINC000020646552    0.5300
      7 O7         -0.8965    6.1054   55.8252 O.2     1  ZINC000020646552   -0.5200
      8 C8         -1.8242    4.3388   54.5651 C.3     1  ZINC000020646552   -0.1500
      9 S9         -0.7542    3.7958   53.2100 S.3     1  ZINC000020646552    0.0500
     10 C10        -1.9713    3.3956   52.0005 C.ar    1  ZINC000020646552    0.1500
     11 N11        -3.2650    3.4850   52.2902 N.ar    1  ZINC000020646552   -0.5200
     12 C12        -4.1812    3.1837   51.3806 C.ar    1  ZINC000020646552    0.3800
     13 C13        -5.6169    3.2968   51.7353 C.ar    1  ZINC000020646552   -0.0500
     14 C14        -5.9913    3.7058   53.0140 C.ar    1  ZINC000020646552   -0.0700
     15 C15        -7.3288    3.8098   53.3384 C.ar    1  ZINC000020646552   -0.1300
     16 C16        -8.2968    3.5089   52.3972 C.ar    1  ZINC000020646552   -0.1000
     17 C17        -7.9310    3.1020   51.1267 C.ar    1  ZINC000020646552   -0.1300
     18 C18        -6.5966    3.0000   50.7895 C.ar    1  ZINC000020646552   -0.0700
     19 N19        -3.8463    2.7844   50.1624 N.ar    1  ZINC000020646552   -0.5200
     20 C20        -2.5727    2.6723   49.8065 C.ar    1  ZINC000020646552    0.2100
     21 C21        -1.5902    2.9840   50.7181 C.ar    1  ZINC000020646552   -0.2100
     22 C22        -0.1298    2.8893   50.3726 C.3     1  ZINC000020646552    0.1100
     23 O23         0.0463    2.1138   49.1864 O.3     1  ZINC000020646552   -0.3600
     24 C24        -0.7755    2.5517   48.0985 C.3     1  ZINC000020646552    0.1100
     25 C25        -0.6348    4.0654   47.9255 C.3     1  ZINC000020646552   -0.1800
     26 C26        -0.3439    1.8453   46.8119 C.3     1  ZINC000020646552   -0.1400
     27 C27        -2.2316    2.2097   48.4145 C.3     1  ZINC000020646552   -0.0900
     28 C28        -0.3980    2.6167   56.3426 C.3     1  ZINC000020646552    0.1100
     29 C29        -0.7663    1.9957   57.6943 C.3     1  ZINC000020646552    0.0400
     30 H30         0.1094    0.6769   59.8356 H       1  ZINC000020646552    0.0700
     31 H31         0.6915    2.1049   60.7245 H       1  ZINC000020646552    0.0700
     32 H32        -1.0390    1.9386   60.3426 H       1  ZINC000020646552    0.0300
     33 H33        -0.9088    4.1888   59.1633 H       1  ZINC000020646552    0.0400
     34 H34         0.7885    4.2077   59.7005 H       1  ZINC000020646552    0.0900
     35 H35         0.3523    5.6805   57.6938 H       1  ZINC000020646552    0.1000
     36 H36         1.5668    4.4109   57.3889 H       1  ZINC000020646552    0.0800
     37 H37        -2.3958    3.4896   54.9393 H       1  ZINC000020646552    0.1300
     38 H38        -2.5085    5.1059   54.2026 H       1  ZINC000020646552    0.1200
     39 H39        -5.2364    3.9407   53.7497 H       1  ZINC000020646552    0.1400
     40 H40        -7.6201    4.1263   54.3290 H       1  ZINC000020646552    0.1300
     41 H41        -9.3422    3.5916   52.6554 H       1  ZINC000020646552    0.1300
     42 H42        -8.6910    2.8680   50.3960 H       1  ZINC000020646552    0.1300
     43 H43        -6.3120    2.6823   49.7973 H       1  ZINC000020646552    0.1300
     44 H44         0.2691    3.8909   50.2119 H       1  ZINC000020646552    0.0800
     45 H45         0.4063    2.4171   51.1958 H       1  ZINC000020646552    0.1100
     46 H46         0.4058    4.3118   47.7151 H       1  ZINC000020646552    0.0700
     47 H47        -1.2612    4.3962   47.0970 H       1  ZINC000020646552    0.0700
     48 H48        -0.9489    4.5665   48.8411 H       1  ZINC000020646552    0.0600
     49 H49        -0.4511    0.7676   46.9355 H       1  ZINC000020646552    0.0700
     50 H50        -0.9709    2.1803   45.9856 H       1  ZINC000020646552    0.0800
     51 H51         0.6978    2.0846   46.5979 H       1  ZINC000020646552    0.0700
     52 H52        -2.3723    1.1306   48.3526 H       1  ZINC000020646552    0.1000
     53 H53        -2.8845    2.7019   47.6937 H       1  ZINC000020646552    0.1000
     54 H54        -1.1651    2.3744   55.6071 H       1  ZINC000020646552    0.0900
     55 H55         0.5657    2.2292   56.0120 H       1  ZINC000020646552    0.0800
     56 H56        -0.7252    0.9092   57.6186 H       1  ZINC000020646552    0.0900
     57 H57        -1.7740    2.3035   57.9734 H       1  ZINC000020646552    0.0400
@<TRIPOS>BOND
     1     1     2    1
     2     1    30    1
     3     1    31    1
     4     1    32    1
     5     2    29    1
     6     2     3    1
     7     3     4    1
     8     3    33    1
     9     3    34    1
    10     4     5    1
    11     4    35    1
    12     4    36    1
    13     5     6   am
    14     5    28    1
    15     6     7    2
    16     6     8    1
    17     8     9    1
    18     8    37    1
    19     8    38    1
    20     9    10    1
    21    10    21   ar
    22    10    11   ar
    23    11    12   ar
    24    12    13    1
    25    12    19   ar
    26    13    18   ar
    27    13    14   ar
    28    14    15   ar
    29    14    39    1
    30    15    16   ar
    31    15    40    1
    32    16    17   ar
    33    16    41    1
    34    17    18   ar
    35    17    42    1
    36    18    43    1
    37    19    20   ar
    38    20    27    1
    39    20    21   ar
    40    21    22    1
    41    22    23    1
    42    22    44    1
    43    22    45    1
    44    23    24    1
    45    24    25    1
    46    24    26    1
    47    24    27    1
    48    25    46    1
    49    25    47    1
    50    25    48    1
    51    26    49    1
    52    26    50    1
    53    26    51    1
    54    27    52    1
    55    27    53    1
    56    28    29    1
    57    28    54    1
    58    28    55    1
    59    29    56    1
    60    29    57    1
@<TRIPOS>SUBSTRUCTURE
     1 ZINC000020646552        1 TEMP              0 ****  ****    0 ROOT


##########                                Name:    ZINC000550952205
##########                DOCK_Rotatable_Bonds:                   7
##########                         Heavy_Atoms:                  28
##########                    Molecular_Weight:             407.484
##########                DOCK_Rotatable_Bonds:                   7
##########                       Formal_Charge:        -2.68221e-07
##########                     HBond_Acceptors:                   8
##########                        HBond_Donors:                   2
##########                         Heavy_Atoms:                  28
##########                          Grid_Score:          -31.278744
##########                     Grid_vdw_energy:          -26.944967
##########                      Grid_es_energy:           -4.333777
##########           Internal_energy_repulsive:            9.041507

@<TRIPOS>MOLECULE
ZINC000550952205
 51 54 1 0 0
SMALL
USER_CHARGES


@<TRIPOS>ATOM
      1 O1         -6.2886    6.2711   54.8728 O.2     1  ZINC000550952205   -0.5100
      2 C2         -5.9250    5.1232   54.7207 C.2     1  ZINC000550952205    0.5100
      3 N3         -5.9293    4.2711   55.7649 N.am    1  ZINC000550952205   -0.7000
      4 C4         -6.3674    4.7320   57.0847 C.3     1  ZINC000550952205    0.1200
      5 C5         -7.6449    3.9915   57.4854 C.3     1  ZINC000550952205   -0.0900
      6 H6         -8.0896    4.4732   58.3563 H       1  ZINC000550952205    0.1000
      7 C7         -8.6221    4.0139   56.3414 C.3     1  ZINC000550952205   -0.1300
      8 C8        -10.0855    4.0866   56.8175 C.3     1  ZINC000550952205   -0.1200
      9 C9        -10.3664    3.1746   58.0269 C.3     1  ZINC000550952205   -0.1300
     10 C10        -9.7024    1.8302   57.9008 C.3     1  ZINC000550952205   -0.1500
     11 C11        -8.3407    1.8866   58.6230 C.3     1  ZINC000550952205    0.3000
     12 F12        -8.4894    2.6043   59.8146 F       1  ZINC000550952205   -0.2000
     13 F13        -7.9350    0.5828   58.9275 F       1  ZINC000550952205   -0.2000
     14 C14        -7.3096    2.5237   57.8201 C.3     1  ZINC000550952205   -0.1700
     15 C15        -5.4784    4.6534   53.3755 C.2     1  ZINC000550952205    0.5100
     16 O16        -5.7746    5.2858   52.3826 O.2     1  ZINC000550952205   -0.4900
     17 N17        -4.7464    3.5273   53.2638 N.am    1  ZINC000550952205   -0.6400
     18 C18        -4.3284    3.0875   52.0044 C.ar    1  ZINC000550952205    0.1500
     19 C19        -5.2432    2.5025   51.1303 C.ar    1  ZINC000550952205   -0.1200
     20 C20        -4.8506    2.0698   49.9012 C.ar    1  ZINC000550952205   -0.0400
     21 C21        -3.5093    2.2054   49.4887 C.ar    1  ZINC000550952205    0.0800
     22 N22        -2.9272    1.8456   48.3284 N.2     1  ZINC000550952205   -0.4700
     23 C23        -1.6770    2.0772   48.1899 C.2     1  ZINC000550952205    0.1200
     24 C24        -0.8833    1.7357   46.9552 C.3     1  ZINC000550952205   -0.1100
     25 C25        -0.3844    2.8966   46.0925 C.3     1  ZINC000550952205   -0.1500
     26 C26         0.6027    2.0995   46.9475 C.3     1  ZINC000550952205   -0.1500
     27 S27        -1.0202    2.8219   49.5777 S.3     1  ZINC000550952205    0.1200
     28 C28        -2.5932    2.7939   50.3686 C.ar    1  ZINC000550952205   -0.1700
     29 C29        -3.0072    3.2376   51.6215 C.ar    1  ZINC000550952205   -0.0700
     30 H30        -5.6424    3.3526   55.6426 H       1  ZINC000550952205    0.4200
     31 H31        -5.5860    4.5311   57.8176 H       1  ZINC000550952205    0.0800
     32 H32        -6.5647    5.8033   57.0484 H       1  ZINC000550952205    0.0800
     33 H33        -8.4116    4.8806   55.7147 H       1  ZINC000550952205    0.0700
     34 H34        -8.4894    3.1104   55.7464 H       1  ZINC000550952205    0.0700
     35 H35       -10.3149    5.1161   57.0928 H       1  ZINC000550952205    0.0700
     36 H36       -10.7377    3.7913   55.9956 H       1  ZINC000550952205    0.0700
     37 H37       -10.0023    3.6643   58.9301 H       1  ZINC000550952205    0.0800
     38 H38       -11.4430    3.0292   58.1165 H       1  ZINC000550952205    0.0700
     39 H39       -10.3298    1.0672   58.3614 H       1  ZINC000550952205    0.0900
     40 H40        -9.5488    1.5951   56.8475 H       1  ZINC000550952205    0.1000
     41 H41        -7.1970    1.9712   56.8872 H       1  ZINC000550952205    0.1000
     42 H42        -6.3660    2.4887   58.3649 H       1  ZINC000550952205    0.1000
     43 H43        -4.5096    3.0221   54.0571 H       1  ZINC000550952205    0.4300
     44 H44        -6.2743    2.3911   51.4317 H       1  ZINC000550952205    0.1400
     45 H45        -5.5724    1.6184   49.2366 H       1  ZINC000550952205    0.1400
     46 H46        -1.1799    0.8196   46.4442 H       1  ZINC000550952205    0.1300
     47 H47        -0.3528    2.7446   45.0136 H       1  ZINC000550952205    0.1000
     48 H48        -0.6303    3.9074   46.4180 H       1  ZINC000550952205    0.1100
     49 H49         1.0064    2.5859   47.8356 H       1  ZINC000550952205    0.1000
     50 H50         1.2839    1.4231   46.4311 H       1  ZINC000550952205    0.1100
     51 H51        -2.2977    3.6959   52.2945 H       1  ZINC000550952205    0.1400
@<TRIPOS>BOND
     1     1     2    2
     2     2     3   am
     3     2    15    1
     4     3     4    1
     5     3    30    1
     6     4     5    1
     7     4    31    1
     8     4    32    1
     9     5     6    1
    10     5    14    1
    11     5     7    1
    12     7     8    1
    13     7    33    1
    14     7    34    1
    15     8     9    1
    16     8    35    1
    17     8    36    1
    18     9    10    1
    19     9    37    1
    20     9    38    1
    21    10    11    1
    22    10    39    1
    23    10    40    1
    24    11    12    1
    25    11    13    1
    26    11    14    1
    27    14    41    1
    28    14    42    1
    29    15    16    2
    30    15    17   am
    31    17    18    1
    32    17    43    1
    33    18    29   ar
    34    18    19   ar
    35    19    20   ar
    36    19    44    1
    37    20    21   ar
    38    20    45    1
    39    21    28   ar
    40    21    22    1
    41    22    23    2
    42    23    24    1
    43    23    27    1
    44    24    26    1
    45    24    25    1
    46    24    46    1
    47    25    26    1
    48    25    47    1
    49    25    48    1
    50    26    49    1
    51    26    50    1
    52    27    28    1
    53    28    29   ar
    54    29    51    1
@<TRIPOS>SUBSTRUCTURE
     1 ZINC000550952205        1 TEMP              0 ****  ****    0 ROOT


##########                                Name:    ZINC000549659617
##########                DOCK_Rotatable_Bonds:                   9
##########                         Heavy_Atoms:                  28
##########                    Molecular_Weight:              418.48
##########                DOCK_Rotatable_Bonds:                   9
##########                       Formal_Charge:          0.00999956
##########                     HBond_Acceptors:                   9
##########                        HBond_Donors:                   1
##########                         Heavy_Atoms:                  28
##########                          Grid_Score:          -31.271582
##########                     Grid_vdw_energy:          -29.532801
##########                      Grid_es_energy:           -1.738781
##########           Internal_energy_repulsive:           29.457001

@<TRIPOS>MOLECULE
ZINC000549659617
 53 55 1 0 0
SMALL
USER_CHARGES


@<TRIPOS>ATOM
      1 C1          2.8674    4.5043   52.1020 C.3     1  ZINC000549659617   -0.1500
      2 C2          3.2319    3.2846   51.2530 C.3     1  ZINC000549659617   -0.1500
      3 C3          2.1048    2.2530   51.3322 C.3     1  ZINC000549659617    0.1100
      4 N4          1.9043    1.6468   50.0136 N.am    1  ZINC000549659617   -0.6100
      5 C5          0.9196    2.0937   49.2091 C.2     1  ZINC000549659617    0.7100
      6 O6          0.7541    1.5917   48.1142 O.2     1  ZINC000549659617   -0.5700
      7 N7          0.1183    3.0972   49.6185 N.am    1  ZINC000549659617   -0.7400
      8 C8         -0.9510    3.5841   48.7434 C.3     1  ZINC000549659617    0.2300
      9 H9         -0.9481    3.0141   47.8143 H       1  ZINC000549659617    0.1100
     10 C10        -2.2805    3.4145   49.4326 C.ar    1  ZINC000549659617   -0.0900
     11 C11        -3.0922    2.3421   49.1139 C.ar    1  ZINC000549659617   -0.0800
     12 C12        -4.3118    2.1865   49.7462 C.ar    1  ZINC000549659617   -0.1100
     13 C13        -4.7191    3.1031   50.6972 C.ar    1  ZINC000549659617   -0.0700
     14 C14        -3.9067    4.1753   51.0166 C.ar    1  ZINC000549659617   -0.1800
     15 C15        -4.3511    5.1748   52.0531 C.3     1  ZINC000549659617    0.5100
     16 F16        -3.4736    6.2645   52.0565 F       1  ZINC000549659617   -0.1800
     17 F17        -5.6432    5.6176   51.7502 F       1  ZINC000549659617   -0.1700
     18 F18        -4.3489    4.5705   53.3148 F       1  ZINC000549659617   -0.1700
     19 C19        -2.6856    4.3284   50.3876 C.ar    1  ZINC000549659617   -0.0500
     20 C20        -0.7221    5.0649   48.4339 C.3     1  ZINC000549659617   -0.1700
     21 C21         0.5352    5.7205   49.0084 C.3     1  ZINC000549659617   -0.1700
     22 C22         0.4446    5.4216   47.5106 C.3     1  ZINC000549659617   -0.1800
     23 C23         2.7742    0.5549   49.5694 C.3     1  ZINC000549659617    0.1700
     24 H24         3.0296    0.6857   48.5179 H       1  ZINC000549659617    0.1100
     25 C25         2.0699   -0.7974   49.7764 C.3     1  ZINC000549659617   -0.1400
     26 C26         3.1111   -1.9248   49.6289 C.3     1  ZINC000549659617   -0.5900
     27 S27         4.7028   -1.1700   50.1213 S.o2    1  ZINC000549659617    2.3900
     28 O28         5.1353   -1.7413   51.3485 O.2     1  ZINC000549659617   -0.9300
     29 O29         5.5796   -1.1482   49.0031 O.2     1  ZINC000549659617   -0.9400
     30 C30         4.0642    0.5206   50.4288 C.3     1  ZINC000549659617   -0.6100
     31 H31         3.6703    5.2393   52.0457 H       1  ZINC000549659617    0.0600
     32 H32         1.9440    4.9453   51.7266 H       1  ZINC000549659617    0.0600
     33 H33         2.7281    4.1970   53.1384 H       1  ZINC000549659617    0.0600
     34 H34         3.3712    3.5919   50.2165 H       1  ZINC000549659617    0.0700
     35 H35         4.1553    2.8435   51.6285 H       1  ZINC000549659617    0.0700
     36 H36         2.3710    1.4785   52.0515 H       1  ZINC000549659617    0.0800
     37 H37         1.1848    2.7436   51.6501 H       1  ZINC000549659617    0.0900
     38 H38         0.2495    3.4969   50.4925 H       1  ZINC000549659617    0.4000
     39 H39        -2.7739    1.6260   48.3708 H       1  ZINC000549659617    0.1300
     40 H40        -4.9464    1.3491   49.4967 H       1  ZINC000549659617    0.1400
     41 H41        -5.6721    2.9819   51.1906 H       1  ZINC000549659617    0.1400
     42 H42        -2.0510    5.1659   50.6371 H       1  ZINC000549659617    0.1400
     43 H43        -1.6224    5.6756   48.3662 H       1  ZINC000549659617    0.1100
     44 H44         0.4622    6.7629   49.3189 H       1  ZINC000549659617    0.0900
     45 H45         1.1994    5.0969   49.6068 H       1  ZINC000549659617    0.0900
     46 H46         1.0491    4.6012   47.1237 H       1  ZINC000549659617    0.1200
     47 H47         0.3119    6.2671   46.8357 H       1  ZINC000549659617    0.0900
     48 H48         1.6301   -0.8329   50.7731 H       1  ZINC000549659617    0.1100
     49 H49         1.2871   -0.9214   49.0280 H       1  ZINC000549659617    0.0900
     50 H50         2.8656   -2.7557   50.2902 H       1  ZINC000549659617    0.1400
     51 H51         3.1573   -2.2644   48.5942 H       1  ZINC000549659617    0.1400
     52 H52         4.7772    1.2715   50.0885 H       1  ZINC000549659617    0.1400
     53 H53         3.8289    0.6592   51.4841 H       1  ZINC000549659617    0.1600
@<TRIPOS>BOND
     1     1     2    1
     2     1    31    1
     3     1    32    1
     4     1    33    1
     5     2     3    1
     6     2    34    1
     7     2    35    1
     8     3     4    1
     9     3    36    1
    10     3    37    1
    11     4     5   am
    12     4    23    1
    13     5     6    2
    14     5     7   am
    15     7     8    1
    16     7    38    1
    17     8     9    1
    18     8    10    1
    19     8    20    1
    20    10    19   ar
    21    10    11   ar
    22    11    12   ar
    23    11    39    1
    24    12    13   ar
    25    12    40    1
    26    13    14   ar
    27    13    41    1
    28    14    15    1
    29    14    19   ar
    30    15    16    1
    31    15    17    1
    32    15    18    1
    33    19    42    1
    34    20    22    1
    35    20    21    1
    36    20    43    1
    37    21    22    1
    38    21    44    1
    39    21    45    1
    40    22    46    1
    41    22    47    1
    42    23    24    1
    43    23    30    1
    44    23    25    1
    45    25    26    1
    46    25    48    1
    47    25    49    1
    48    26    27    1
    49    26    50    1
    50    26    51    1
    51    27    28    2
    52    27    29    2
    53    27    30    1
    54    30    52    1
    55    30    53    1
@<TRIPOS>SUBSTRUCTURE
     1 ZINC000549659617        1 TEMP              0 ****  ****    0 ROOT


##########                                Name:    ZINC000893400114
##########                DOCK_Rotatable_Bonds:                   6
##########                         Heavy_Atoms:                  27
##########                    Molecular_Weight:             381.472
##########                DOCK_Rotatable_Bonds:                   6
##########                       Formal_Charge:           0.0300001
##########                     HBond_Acceptors:                   8
##########                        HBond_Donors:                   1
##########                         Heavy_Atoms:                  27
##########                          Grid_Score:          -31.229919
##########                     Grid_vdw_energy:          -30.520344
##########                      Grid_es_energy:           -0.709576
##########           Internal_energy_repulsive:           81.002518

@<TRIPOS>MOLECULE
ZINC000893400114
 58 61 1 0 0
SMALL
USER_CHARGES


@<TRIPOS>ATOM
      1 O1         -4.3987    2.4333   49.3792 O.2     1  ZINC000893400114   -0.5600
      2 C2         -4.4920    3.0468   50.4247 C.2     1  ZINC000893400114    0.7100
      3 N3         -5.6643    3.0714   51.0892 N.am    1  ZINC000893400114   -0.7300
      4 C4         -6.8277    2.3637   50.5488 C.3     1  ZINC000893400114    0.1400
      5 H5         -6.6093    1.9773   49.5532 H       1  ZINC000893400114    0.1200
      6 C6         -8.0590    3.2982   50.5085 C.3     1  ZINC000893400114   -0.1400
      7 C7         -8.7455    2.9727   51.8536 C.3     1  ZINC000893400114    0.1000
      8 N8         -8.3215    1.6085   52.1896 N.am    1  ZINC000893400114   -0.6200
      9 C9         -8.9882    0.7550   53.1762 C.3     1  ZINC000893400114    0.1600
     10 C10        -9.6912    1.6297   54.2187 C.3     1  ZINC000893400114   -0.1700
     11 C11       -10.4498    0.7313   55.1992 C.3     1  ZINC000893400114    0.0700
     12 O12       -11.3804   -0.0789   54.4785 O.3     1  ZINC000893400114   -0.3800
     13 C13       -10.7758   -0.9521   53.5224 C.3     1  ZINC000893400114    0.0700
     14 C14       -10.0303   -0.1214   52.4746 C.3     1  ZINC000893400114   -0.1700
     15 C15        -7.2408    1.2403   51.4739 C.2     1  ZINC000893400114    0.5100
     16 O16        -6.6830    0.1668   51.5605 O.2     1  ZINC000893400114   -0.4900
     17 N17        -3.4218    3.6980   50.9219 N.am    1  ZINC000893400114   -0.6300
     18 C18        -3.5090    4.4423   52.1883 C.3     1  ZINC000893400114    0.0800
     19 C19        -2.3485    4.0028   53.0883 C.3     1  ZINC000893400114    0.0500
     20 O20        -1.1211    4.1216   52.3653 O.3     1  ZINC000893400114   -0.3800
     21 C21        -1.0381    3.2824   51.2108 C.3     1  ZINC000893400114    0.0600
     22 C22        -2.1300    3.6804   50.2175 C.3     1  ZINC000893400114    0.1400
     23 H23        -1.9209    4.6738   49.8207 H       1  ZINC000893400114    0.0800
     24 C24        -2.1782    2.6675   49.0718 C.3     1  ZINC000893400114   -0.1200
     25 C25        -0.7794    2.5080   48.4728 C.3     1  ZINC000893400114    0.0700
     26 H26        -0.0766    2.2072   49.2499 H       1  ZINC000893400114    0.0800
     27 C27        -0.3240    3.8418   47.8428 C.3     1  ZINC000893400114   -0.1500
     28 C28         0.4044    3.3669   46.5560 C.3     1  ZINC000893400114   -0.1600
     29 C29        -0.4437    2.1261   46.1789 C.3     1  ZINC000893400114    0.0500
     30 O30        -0.8054    1.5228   47.4334 O.3     1  ZINC000893400114   -0.3800
     31 H31        -5.7378    3.5576   51.9254 H       1  ZINC000893400114    0.4000
     32 H32        -7.7539    4.3439   50.4693 H       1  ZINC000893400114    0.1000
     33 H33        -8.7089    3.0512   49.6691 H       1  ZINC000893400114    0.1000
     34 H34        -8.4163    3.6704   52.6236 H       1  ZINC000893400114    0.0700
     35 H35        -9.8291    3.0147   51.7439 H       1  ZINC000893400114    0.0800
     36 H36        -8.2503    0.1211   53.6679 H       1  ZINC000893400114    0.0900
     37 H37        -8.9500    2.2166   54.7612 H       1  ZINC000893400114    0.0800
     38 H38       -10.3927    2.2983   53.7199 H       1  ZINC000893400114    0.0900
     39 H39        -9.7430    0.0911   55.7270 H       1  ZINC000893400114    0.0500
     40 H40       -10.9870    1.3501   55.9181 H       1  ZINC000893400114    0.1000
     41 H41       -10.0733   -1.6144   54.0283 H       1  ZINC000893400114    0.0500
     42 H42       -11.5478   -1.5461   53.0334 H       1  ZINC000893400114    0.1000
     43 H43       -10.7387    0.5119   51.9405 H       1  ZINC000893400114    0.0900
     44 H44        -9.5318   -0.7867   51.7697 H       1  ZINC000893400114    0.0700
     45 H45        -3.4361    5.5119   51.9911 H       1  ZINC000893400114    0.0800
     46 H46        -4.4574    4.2227   52.6785 H       1  ZINC000893400114    0.0800
     47 H47        -2.3131    4.6386   53.9730 H       1  ZINC000893400114    0.1100
     48 H48        -2.4945    2.9657   53.3900 H       1  ZINC000893400114    0.0500
     49 H49        -0.0598    3.3999   50.7448 H       1  ZINC000893400114    0.1300
     50 H50        -1.1792    2.2426   51.5057 H       1  ZINC000893400114    0.0500
     51 H51        -2.5228    1.7056   49.4513 H       1  ZINC000893400114    0.0800
     52 H52        -2.8646    3.0215   48.3025 H       1  ZINC000893400114    0.1100
     53 H53        -1.1822    4.4665   47.5947 H       1  ZINC000893400114    0.0800
     54 H54         0.3625    4.3693   48.5050 H       1  ZINC000893400114    0.0800
     55 H55         0.3582    4.1262   45.7755 H       1  ZINC000893400114    0.0800
     56 H56         1.4362    3.0874   46.7692 H       1  ZINC000893400114    0.0800
     57 H57        -1.3369    2.4302   45.6331 H       1  ZINC000893400114    0.0600
     58 H58         0.1470    1.4312   45.5821 H       1  ZINC000893400114    0.0800
@<TRIPOS>BOND
     1     1     2    2
     2     2     3   am
     3     2    17   am
     4     3     4    1
     5     3    31    1
     6     4     5    1
     7     4    15    1
     8     4     6    1
     9     6     7    1
    10     6    32    1
    11     6    33    1
    12     7     8    1
    13     7    34    1
    14     7    35    1
    15     8     9    1
    16     8    15   am
    17     9    14    1
    18     9    10    1
    19     9    36    1
    20    10    11    1
    21    10    37    1
    22    10    38    1
    23    11    12    1
    24    11    39    1
    25    11    40    1
    26    12    13    1
    27    13    14    1
    28    13    41    1
    29    13    42    1
    30    14    43    1
    31    14    44    1
    32    15    16    2
    33    17    22    1
    34    17    18    1
    35    18    19    1
    36    18    45    1
    37    18    46    1
    38    19    20    1
    39    19    47    1
    40    19    48    1
    41    20    21    1
    42    21    22    1
    43    21    49    1
    44    21    50    1
    45    22    23    1
    46    22    24    1
    47    24    25    1
    48    24    51    1
    49    24    52    1
    50    25    26    1
    51    25    30    1
    52    25    27    1
    53    27    28    1
    54    27    53    1
    55    27    54    1
    56    28    29    1
    57    28    55    1
    58    28    56    1
    59    29    30    1
    60    29    57    1
    61    29    58    1
@<TRIPOS>SUBSTRUCTURE
     1 ZINC000893400114        1 TEMP              0 ****  ****    0 ROOT


##########                                Name:    ZINC000771225867
##########                DOCK_Rotatable_Bonds:                   9
##########                         Heavy_Atoms:                  23
##########                    Molecular_Weight:             355.802
##########                DOCK_Rotatable_Bonds:                   9
##########                       Formal_Charge:        -3.12924e-07
##########                     HBond_Acceptors:                   9
##########                        HBond_Donors:                   3
##########                         Heavy_Atoms:                  23
##########                          Grid_Score:          -31.175369
##########                     Grid_vdw_energy:          -29.495594
##########                      Grid_es_energy:           -1.679774
##########           Internal_energy_repulsive:            9.675677

@<TRIPOS>MOLECULE
ZINC000771225867
 37 38 1 0 0
SMALL
USER_CHARGES


@<TRIPOS>ATOM
      1 C1        -11.3045   -1.9889   54.3086 C.3     1  ZINC000771225867    0.0400
      2 O2        -10.1517   -1.4609   53.6494 O.3     1  ZINC000771225867   -0.3600
      3 C3        -10.1782   -0.1515   53.3233 C.2     1  ZINC000771225867    0.5500
      4 O4        -11.1555    0.5227   53.5913 O.2     1  ZINC000771225867   -0.4900
      5 C5         -9.0696    0.4376   52.6698 C.2     1  ZINC000771225867   -0.3400
      6 C6         -8.9156    1.7684   52.3812 C.2     1  ZINC000771225867    0.2700
      7 Cl7       -10.1010    2.9687   52.7908 Cl      1  ZINC000771225867    0.0400
      8 N8         -7.7939    2.0530   51.7692 N.2     1  ZINC000771225867   -0.5500
      9 C9         -6.9842    1.0646   51.5165 C.2     1  ZINC000771225867    0.3400
     10 N10        -5.7673    1.1896   50.8825 N.pl3   1  ZINC000771225867   -0.6700
     11 C11        -5.3683    2.4779   50.3105 C.3     1  ZINC000771225867    0.1700
     12 C12        -3.9092    2.7240   50.5962 C.ar    1  ZINC000771225867   -0.0800
     13 C13        -3.5149    3.1655   51.8455 C.ar    1  ZINC000771225867   -0.1300
     14 C14        -2.1768    3.3922   52.1108 C.ar    1  ZINC000771225867   -0.0800
     15 C15        -1.2306    3.1780   51.1275 C.ar    1  ZINC000771225867   -0.2000
     16 C16        -1.6238    2.7348   49.8728 C.ar    1  ZINC000771225867    0.1300
     17 O17        -0.6947    2.5229   48.9039 O.3     1  ZINC000771225867   -0.2900
     18 C18        -0.8610    3.2384   47.6782 C.3     1  ZINC000771225867    0.0400
     19 C19        -0.8750    2.2660   46.5269 C.2     1  ZINC000771225867    0.5200
     20 N20        -0.5269    2.6787   45.2919 N.am    1  ZINC000771225867   -0.8500
     21 O21        -1.1996    1.1121   46.7117 O.2     1  ZINC000771225867   -0.5200
     22 C22        -2.9661    2.5028   49.6109 C.ar    1  ZINC000771225867   -0.1200
     23 S23        -7.6372   -0.4076   52.0884 S.3     1  ZINC000771225867    0.2200
     24 H24       -11.4624   -1.4566   55.2466 H       1  ZINC000771225867    0.0600
     25 H25       -12.1780   -1.8641   53.6686 H       1  ZINC000771225867    0.0600
     26 H26       -11.1525   -3.0486   54.5133 H       1  ZINC000771225867    0.1000
     27 H27        -5.1749    0.4245   50.8148 H       1  ZINC000771225867    0.4200
     28 H28        -5.5299    2.4626   49.2326 H       1  ZINC000771225867    0.0900
     29 H29        -5.9650    3.2738   50.7561 H       1  ZINC000771225867    0.0900
     30 H30        -4.2532    3.3339   52.6154 H       1  ZINC000771225867    0.1300
     31 H31        -1.8713    3.7374   53.0874 H       1  ZINC000771225867    0.1300
     32 H32        -0.1858    3.3556   51.3352 H       1  ZINC000771225867    0.1300
     33 H33        -1.8027    3.7865   47.7022 H       1  ZINC000771225867    0.1000
     34 H34        -0.0357    3.9392   47.5517 H       1  ZINC000771225867    0.1000
     35 H35        -0.5348    2.0525   44.5512 H       1  ZINC000771225867    0.4000
     36 H36        -0.2684    3.6018   45.1440 H       1  ZINC000771225867    0.4100
     37 H37        -3.2746    2.1579   48.6351 H       1  ZINC000771225867    0.1400
@<TRIPOS>BOND
     1     1     2    1
     2     1    24    1
     3     1    25    1
     4     1    26    1
     5     2     3    1
     6     3     4    2
     7     3     5    1
     8     5    23    1
     9     5     6    2
    10     6     7    1
    11     6     8    1
    12     8     9    2
    13     9    10    1
    14     9    23    1
    15    10    11    1
    16    10    27    1
    17    11    12    1
    18    11    28    1
    19    11    29    1
    20    12    22   ar
    21    12    13   ar
    22    13    14   ar
    23    13    30    1
    24    14    15   ar
    25    14    31    1
    26    15    16   ar
    27    15    32    1
    28    16    17    1
    29    16    22   ar
    30    17    18    1
    31    18    19    1
    32    18    33    1
    33    18    34    1
    34    19    20   am
    35    19    21    2
    36    20    35    1
    37    20    36    1
    38    22    37    1
@<TRIPOS>SUBSTRUCTURE
     1 ZINC000771225867        1 TEMP              0 ****  ****    0 ROOT


##########                                Name:    ZINC000523153175
##########                DOCK_Rotatable_Bonds:                   9
##########                         Heavy_Atoms:                  30
##########                    Molecular_Weight:             413.603
##########                DOCK_Rotatable_Bonds:                   9
##########                       Formal_Charge:           0.0499987
##########                     HBond_Acceptors:                   5
##########                        HBond_Donors:                   1
##########                         Heavy_Atoms:                  30
##########                          Grid_Score:          -31.128277
##########                     Grid_vdw_energy:          -30.735989
##########                      Grid_es_energy:           -0.392288
##########           Internal_energy_repulsive:           35.878510

@<TRIPOS>MOLECULE
ZINC000523153175
 69 71 1 0 0
SMALL
USER_CHARGES


@<TRIPOS>ATOM
      1 C1          2.2081    2.0935   58.9581 C.3     1  ZINC000523153175   -0.1500
      2 C2          2.8534    2.4308   57.6124 C.3     1  ZINC000523153175   -0.0600
      3 C3          3.6421    1.2209   57.1074 C.3     1  ZINC000523153175   -0.1400
      4 C4          1.7800    2.7827   56.6148 C.ar    1  ZINC000523153175   -0.0800
      5 C5          0.5479    2.1589   56.6764 C.ar    1  ZINC000523153175   -0.1100
      6 C6         -0.4367    2.4818   55.7614 C.ar    1  ZINC000523153175   -0.1100
      7 C7         -0.1893    3.4286   54.7850 C.ar    1  ZINC000523153175   -0.0800
      8 C8         -1.2625    3.7802   53.7872 C.3     1  ZINC000523153175   -0.0300
      9 H9         -1.9935    2.9730   53.7403 H       1  ZINC000523153175    0.0800
     10 C10        -1.9573    5.0729   54.2197 C.3     1  ZINC000523153175   -0.1500
     11 C11        -0.6312    3.9774   52.4076 C.3     1  ZINC000523153175   -0.1300
     12 C12        -1.6432    3.6483   51.3405 C.2     1  ZINC000523153175    0.5200
     13 O13        -2.7368    3.2263   51.6513 O.2     1  ZINC000523153175   -0.5300
     14 N14        -1.3328    3.8228   50.0406 N.am    1  ZINC000523153175   -0.6200
     15 C15        -0.0095    4.3259   49.6414 C.3     1  ZINC000523153175    0.1100
     16 C16         0.5715    3.3815   48.5838 C.3     1  ZINC000523153175    0.0400
     17 N17        -0.3922    3.2288   47.4857 N.3     1  ZINC000523153175   -0.5100
     18 C18         0.1939    2.4702   46.3725 C.3     1  ZINC000523153175    0.0600
     19 H19        -0.4730    1.6524   46.0993 H       1  ZINC000523153175    0.1100
     20 C20         0.3855    3.3958   45.1695 C.3     1  ZINC000523153175   -0.1800
     21 C21         1.5284    1.9108   46.7936 C.2     1  ZINC000523153175    0.5200
     22 O22         2.5496    2.5011   46.5119 O.2     1  ZINC000523153175   -0.5200
     23 N23         1.5869    0.7543   47.4833 N.am    1  ZINC000523153175   -0.7200
     24 C24         2.8841    0.2114   47.8942 C.3     1  ZINC000523153175    0.1400
     25 C25         3.3783    0.9292   49.1671 C.3     1  ZINC000523153175   -0.1300
     26 C26         2.9286    0.0033   50.3244 C.3     1  ZINC000523153175   -0.1300
     27 C27         3.1541   -1.4120   49.7369 C.3     1  ZINC000523153175   -0.1300
     28 C28         2.7416   -1.2774   48.2565 C.3     1  ZINC000523153175   -0.1300
     29 C29        -1.6366    2.6027   47.9519 C.3     1  ZINC000523153175    0.0400
     30 C30        -2.3061    3.5095   48.9833 C.3     1  ZINC000523153175    0.1200
     31 C31         1.0423    4.0533   54.7244 C.ar    1  ZINC000523153175   -0.1100
     32 C32         2.0256    3.7333   55.6418 C.ar    1  ZINC000523153175   -0.1200
     33 H33         2.9845    1.8389   59.6796 H       1  ZINC000523153175    0.0600
     34 H34         1.6463    2.9554   59.3178 H       1  ZINC000523153175    0.0600
     35 H35         1.5340    1.2458   58.8355 H       1  ZINC000523153175    0.0600
     36 H36         3.5275    3.2785   57.7350 H       1  ZINC000523153175    0.0800
     37 H37         2.9679    0.3731   56.9848 H       1  ZINC000523153175    0.0600
     38 H38         4.1016    1.4611   56.1487 H       1  ZINC000523153175    0.0600
     39 H39         4.4184    0.9663   57.8290 H       1  ZINC000523153175    0.0600
     40 H40         0.3546    1.4192   57.4391 H       1  ZINC000523153175    0.1200
     41 H41        -1.3991    1.9939   55.8090 H       1  ZINC000523153175    0.1200
     42 H42        -2.7335    5.3272   53.4980 H       1  ZINC000523153175    0.0800
     43 H43        -2.4070    4.9324   55.2026 H       1  ZINC000523153175    0.0600
     44 H44        -1.2262    5.8801   54.2666 H       1  ZINC000523153175    0.0500
     45 H45        -0.3125    5.0141   52.2986 H       1  ZINC000523153175    0.0900
     46 H46         0.2316    3.3193   52.3053 H       1  ZINC000523153175    0.0900
     47 H47        -0.1097    5.3273   49.2227 H       1  ZINC000523153175    0.0800
     48 H48         0.6490    4.3531   50.5095 H       1  ZINC000523153175    0.0900
     49 H49         1.5016    3.7974   48.1963 H       1  ZINC000523153175    0.0900
     50 H50         0.7674    2.4081   49.0336 H       1  ZINC000523153175    0.0400
     51 H51         1.0524    4.2135   45.4428 H       1  ZINC000523153175    0.0700
     52 H52         0.8204    2.8329   44.3437 H       1  ZINC000523153175    0.0700
     53 H53        -0.5798    3.8004   44.8650 H       1  ZINC000523153175    0.0700
     54 H54         0.7702    0.2815   47.7076 H       1  ZINC000523153175    0.4000
     55 H55         3.6106    0.3321   47.0906 H       1  ZINC000523153175    0.0900
     56 H56         4.4640    1.0243   49.1543 H       1  ZINC000523153175    0.0700
     57 H57         2.9097    1.9093   49.2585 H       1  ZINC000523153175    0.0700
     58 H58         3.5492    0.1586   51.2068 H       1  ZINC000523153175    0.0700
     59 H59         1.8758    0.1611   50.5586 H       1  ZINC000523153175    0.0700
     60 H60         4.2036   -1.6952   49.8162 H       1  ZINC000523153175    0.0700
     61 H61         2.5219   -2.1408   50.2442 H       1  ZINC000523153175    0.0700
     62 H62         1.7072   -1.5959   48.1267 H       1  ZINC000523153175    0.0700
     63 H63         3.3995   -1.8789   47.6293 H       1  ZINC000523153175    0.0800
     64 H64        -2.3080    2.4540   47.1062 H       1  ZINC000523153175    0.1000
     65 H65        -1.4099    1.6402   48.4105 H       1  ZINC000523153175    0.0400
     66 H66        -3.1669    2.9993   49.4155 H       1  ZINC000523153175    0.1000
     67 H67        -2.6276    4.4342   48.5041 H       1  ZINC000523153175    0.0800
     68 H68         1.2354    4.7934   53.9618 H       1  ZINC000523153175    0.1200
     69 H69         2.9878    4.2214   55.5944 H       1  ZINC000523153175    0.1200
@<TRIPOS>BOND
     1     1     2    1
     2     1    33    1
     3     1    34    1
     4     1    35    1
     5     2     3    1
     6     2     4    1
     7     2    36    1
     8     3    37    1
     9     3    38    1
    10     3    39    1
    11     4    32   ar
    12     4     5   ar
    13     5     6   ar
    14     5    40    1
    15     6     7   ar
    16     6    41    1
    17     7     8    1
    18     7    31   ar
    19     8     9    1
    20     8    10    1
    21     8    11    1
    22    10    42    1
    23    10    43    1
    24    10    44    1
    25    11    12    1
    26    11    45    1
    27    11    46    1
    28    12    13    2
    29    12    14   am
    30    14    30    1
    31    14    15    1
    32    15    16    1
    33    15    47    1
    34    15    48    1
    35    16    17    1
    36    16    49    1
    37    16    50    1
    38    17    18    1
    39    17    29    1
    40    18    19    1
    41    18    20    1
    42    18    21    1
    43    20    51    1
    44    20    52    1
    45    20    53    1
    46    21    22    2
    47    21    23   am
    48    23    24    1
    49    23    54    1
    50    24    28    1
    51    24    25    1
    52    24    55    1
    53    25    26    1
    54    25    56    1
    55    25    57    1
    56    26    27    1
    57    26    58    1
    58    26    59    1
    59    27    28    1
    60    27    60    1
    61    27    61    1
    62    28    62    1
    63    28    63    1
    64    29    30    1
    65    29    64    1
    66    29    65    1
    67    30    66    1
    68    30    67    1
    69    31    32   ar
    70    31    68    1
    71    32    69    1
@<TRIPOS>SUBSTRUCTURE
     1 ZINC000523153175        1 TEMP              0 ****  ****    0 ROOT


##########                                Name:    ZINC000533037883
##########                DOCK_Rotatable_Bonds:                   7
##########                         Heavy_Atoms:                  27
##########                    Molecular_Weight:             368.479
##########                DOCK_Rotatable_Bonds:                   7
##########                       Formal_Charge:          0.00999947
##########                     HBond_Acceptors:                   6
##########                        HBond_Donors:                   1
##########                         Heavy_Atoms:                  27
##########                          Grid_Score:          -31.125311
##########                     Grid_vdw_energy:          -29.419098
##########                      Grid_es_energy:           -1.706214
##########           Internal_energy_repulsive:           13.648048

@<TRIPOS>MOLECULE
ZINC000533037883
 55 58 1 0 0
SMALL
USER_CHARGES


@<TRIPOS>ATOM
      1 O1         -3.0424    1.6535   48.4129 O.2     1  ZINC000533037883   -0.5900
      2 C2         -2.9062    2.6827   49.0459 C.2     1  ZINC000533037883    0.7100
      3 N3         -3.7583    2.9749   50.0484 N.am    1  ZINC000533037883   -0.7500
      4 C4         -4.8523    2.0556   50.3714 C.3     1  ZINC000533037883    0.1400
      5 C5         -5.3749    2.3586   51.7770 C.3     1  ZINC000533037883   -0.0500
      6 C6         -6.5162    1.4289   52.0998 C.2     1  ZINC000533037883   -0.2300
      7 C7         -7.5800    1.7171   52.8850 C.2     1  ZINC000533037883    0.0600
      8 N8         -8.3736    0.6228   52.9205 N.pl3   1  ZINC000533037883   -0.3200
      9 C9         -9.5809    0.5016   53.6224 C.ar    1  ZINC000533037883    0.1600
     10 C10       -10.0589    1.5672   54.3733 C.ar    1  ZINC000533037883   -0.1400
     11 C11       -11.2488    1.4448   55.0638 C.ar    1  ZINC000533037883   -0.0900
     12 C12       -11.9636    0.2624   55.0083 C.ar    1  ZINC000533037883   -0.1300
     13 C13       -11.4901   -0.8006   54.2613 C.ar    1  ZINC000533037883   -0.0900
     14 C14       -10.3040   -0.6821   53.5636 C.ar    1  ZINC000533037883   -0.1200
     15 N15        -7.7758   -0.3682   52.1311 N.2     1  ZINC000533037883   -0.2900
     16 C16        -6.6660    0.1174   51.6357 C.2     1  ZINC000533037883    0.0700
     17 N17        -1.8999    3.5284   48.7488 N.am    1  ZINC000533037883   -0.6300
     18 C18        -1.7188    4.7728   49.5087 C.3     1  ZINC000533037883    0.1100
     19 C19        -0.2802    4.8255   50.0328 C.3     1  ZINC000533037883   -0.1400
     20 C20         0.6913    4.6568   48.8624 C.3     1  ZINC000533037883   -0.1100
     21 C21         0.4670    3.2938   48.2035 C.3     1  ZINC000533037883   -0.0900
     22 H22         0.6145    2.5046   48.9407 H       1  ZINC000533037883    0.0800
     23 C23         1.4613    3.1121   47.0548 C.3     1  ZINC000533037883   -0.1200
     24 H24         1.4106    3.9532   46.3635 H       1  ZINC000533037883    0.0900
     25 C25         2.9049    2.9286   47.5973 C.3     1  ZINC000533037883   -0.1500
     26 C26         3.5397    2.0840   46.4640 C.3     1  ZINC000533037883    0.0500
     27 O27         2.4936    1.2057   46.0197 O.3     1  ZINC000533037883   -0.3900
     28 C28         1.2112    1.7790   46.3175 C.3     1  ZINC000533037883    0.0500
     29 C29        -0.9594    3.2208   47.6626 C.3     1  ZINC000533037883    0.1300
     30 H30        -3.6474    3.7941   50.5560 H       1  ZINC000533037883    0.4000
     31 H31        -5.6585    2.1820   49.6489 H       1  ZINC000533037883    0.0700
     32 H32        -4.4875    1.0291   50.3328 H       1  ZINC000533037883    0.0700
     33 H33        -4.5733    2.2149   52.5016 H       1  ZINC000533037883    0.0800
     34 H34        -5.7233    3.3904   51.8205 H       1  ZINC000533037883    0.0800
     35 H35        -7.7621    2.6528   53.3925 H       1  ZINC000533037883    0.1800
     36 H36        -9.5008    2.4907   54.4177 H       1  ZINC000533037883    0.1300
     37 H37       -11.6212    2.2734   55.6481 H       1  ZINC000533037883    0.1300
     38 H38       -12.8935    0.1689   55.5497 H       1  ZINC000533037883    0.1300
     39 H39       -12.0506   -1.7228   54.2198 H       1  ZINC000533037883    0.1300
     40 H40        -9.9348   -1.5126   52.9802 H       1  ZINC000533037883    0.1400
     41 H41        -5.9807   -0.4061   50.9856 H       1  ZINC000533037883    0.1900
     42 H42        -1.9023    5.6281   48.8584 H       1  ZINC000533037883    0.0700
     43 H43        -2.4143    4.7931   50.3477 H       1  ZINC000533037883    0.0800
     44 H44        -0.1041    5.7865   50.5160 H       1  ZINC000533037883    0.0800
     45 H45        -0.1256    4.0219   50.7527 H       1  ZINC000533037883    0.0700
     46 H46         0.5194    5.4464   48.1309 H       1  ZINC000533037883    0.0700
     47 H47         1.7159    4.7186   49.2292 H       1  ZINC000533037883    0.0700
     48 H48         3.4102    3.8887   47.7019 H       1  ZINC000533037883    0.0800
     49 H49         2.9036    2.3826   48.5407 H       1  ZINC000533037883    0.0800
     50 H50         3.8643    2.7292   45.6476 H       1  ZINC000533037883    0.0600
     51 H51         4.3807    1.5066   46.8481 H       1  ZINC000533037883    0.0900
     52 H52         0.6449    1.1047   46.9599 H       1  ZINC000533037883    0.0700
     53 H53         0.6626    1.9583   45.3929 H       1  ZINC000533037883    0.0700
     54 H54        -1.1548    2.2184   47.2814 H       1  ZINC000533037883    0.1000
     55 H55        -1.0843    3.9494   46.8617 H       1  ZINC000533037883    0.0700
@<TRIPOS>BOND
     1     1     2    2
     2     2     3   am
     3     2    17   am
     4     3     4    1
     5     3    30    1
     6     4     5    1
     7     4    31    1
     8     4    32    1
     9     5     6    1
    10     5    33    1
    11     5    34    1
    12     6    16    1
    13     6     7    2
    14     7     8    1
    15     7    35    1
    16     8     9    1
    17     8    15    1
    18     9    14   ar
    19     9    10   ar
    20    10    11   ar
    21    10    36    1
    22    11    12   ar
    23    11    37    1
    24    12    13   ar
    25    12    38    1
    26    13    14   ar
    27    13    39    1
    28    14    40    1
    29    15    16    2
    30    16    41    1
    31    17    29    1
    32    17    18    1
    33    18    19    1
    34    18    42    1
    35    18    43    1
    36    19    20    1
    37    19    44    1
    38    19    45    1
    39    20    21    1
    40    20    46    1
    41    20    47    1
    42    21    22    1
    43    21    23    1
    44    21    29    1
    45    23    24    1
    46    23    28    1
    47    23    25    1
    48    25    26    1
    49    25    48    1
    50    25    49    1
    51    26    27    1
    52    26    50    1
    53    26    51    1
    54    27    28    1
    55    28    52    1
    56    28    53    1
    57    29    54    1
    58    29    55    1
@<TRIPOS>SUBSTRUCTURE
     1 ZINC000533037883        1 TEMP              0 ****  ****    0 ROOT


##########                                Name:    ZINC000482187991
##########                DOCK_Rotatable_Bonds:                  11
##########                         Heavy_Atoms:                  29
##########                    Molecular_Weight:             407.414
##########                DOCK_Rotatable_Bonds:                  11
##########                       Formal_Charge:           0.0299996
##########                     HBond_Acceptors:                   8
##########                        HBond_Donors:                   1
##########                         Heavy_Atoms:                  29
##########                          Grid_Score:          -31.123764
##########                     Grid_vdw_energy:          -27.304325
##########                      Grid_es_energy:           -3.819439
##########           Internal_energy_repulsive:           10.843319

@<TRIPOS>MOLECULE
ZINC000482187991
 52 53 1 0 0
SMALL
USER_CHARGES


@<TRIPOS>ATOM
      1 C1         -2.7789    4.3936   51.0679 C.3     1  ZINC000482187991    0.0200
      2 O2         -1.9533    3.2939   51.4567 O.3     1  ZINC000482187991   -0.3000
      3 C3         -1.0574    3.5173   52.4553 C.ar    1  ZINC000482187991    0.1400
      4 C4         -1.4961    3.6537   53.7578 C.ar    1  ZINC000482187991   -0.1700
      5 C5         -0.5731    3.8832   54.7852 C.ar    1  ZINC000482187991   -0.1000
      6 C6         -1.0355    4.0284   56.1715 C.2     1  ZINC000482187991    0.4000
      7 O7         -0.9431    5.0999   56.7325 O.2     1  ZINC000482187991   -0.4500
      8 C8         -1.6249    2.8463   56.8970 C.3     1  ZINC000482187991   -0.1500
      9 C9         -0.5778    1.7352   56.9967 C.3     1  ZINC000482187991   -0.1300
     10 C10         0.2207    1.9097   58.2628 C.2     1  ZINC000482187991    0.5200
     11 O11         1.1393    2.7009   58.2962 O.2     1  ZINC000482187991   -0.5200
     12 N12        -0.0857    1.1863   59.3579 N.am    1  ZINC000482187991   -0.7200
     13 C13         0.6918    1.3546   60.5882 C.3     1  ZINC000482187991    0.1500
     14 H14         1.6588    1.7973   60.3491 H       1  ZINC000482187991    0.1300
     15 C15         0.9012    0.0110   61.2377 C.ar    1  ZINC000482187991   -0.1100
     16 C16        -0.0830   -0.9563   61.1578 C.ar    1  ZINC000482187991   -0.1000
     17 C17         0.1090   -2.1887   61.7537 C.ar    1  ZINC000482187991   -0.1200
     18 C18         1.2856   -2.4540   62.4292 C.ar    1  ZINC000482187991   -0.1100
     19 C19         2.2702   -1.4869   62.5084 C.ar    1  ZINC000482187991   -0.1200
     20 C20         2.0799   -0.2560   61.9089 C.ar    1  ZINC000482187991   -0.1000
     21 C21        -0.0662    2.2730   61.5489 C.3     1  ZINC000482187991    0.2500
     22 F22         0.6281    2.3553   62.7606 F       1  ZINC000482187991   -0.1900
     23 F23        -0.1747    3.5492   60.9860 F       1  ZINC000482187991   -0.2000
     24 C24         0.7922    3.9735   54.4877 C.ar    1  ZINC000482187991   -0.1900
     25 C25         1.2234    3.8361   53.1828 C.ar    1  ZINC000482187991    0.1400
     26 O26         2.5493    3.9231   52.8929 O.3     1  ZINC000482187991   -0.3000
     27 C27         3.3763    2.8332   53.3051 C.3     1  ZINC000482187991    0.0200
     28 C28         0.3023    3.6025   52.1639 C.ar    1  ZINC000482187991    0.0600
     29 O29         0.7302    3.4674   50.8818 O.3     1  ZINC000482187991   -0.3100
     30 C30         0.8311    2.1376   50.3683 C.3     1  ZINC000482187991    0.0400
     31 H31        -3.4461    4.0809   50.2647 H       1  ZINC000482187991    0.1100
     32 H32        -3.3692    4.7247   51.9224 H       1  ZINC000482187991    0.0600
     33 H33        -2.1512    5.2141   50.7202 H       1  ZINC000482187991    0.0600
     34 H34        -2.5500    3.5838   53.9835 H       1  ZINC000482187991    0.1500
     35 H35        -1.9293    3.1497   57.8987 H       1  ZINC000482187991    0.1100
     36 H36        -2.4928    2.4796   56.3490 H       1  ZINC000482187991    0.1100
     37 H37        -1.0767    0.7662   57.0125 H       1  ZINC000482187991    0.1000
     38 H38         0.0895    1.7864   56.1364 H       1  ZINC000482187991    0.1000
     39 H39        -0.8211    0.5543   59.3316 H       1  ZINC000482187991    0.4100
     40 H40        -1.0022   -0.7491   60.6300 H       1  ZINC000482187991    0.1200
     41 H41        -0.6602   -2.9443   61.6918 H       1  ZINC000482187991    0.1300
     42 H42         1.4354   -3.4166   62.8954 H       1  ZINC000482187991    0.1300
     43 H43         3.1893   -1.6941   63.0365 H       1  ZINC000482187991    0.1300
     44 H44         2.8492    0.4995   61.9707 H       1  ZINC000482187991    0.1300
     45 H45        -1.0626    1.8689   61.7277 H       1  ZINC000482187991    0.1200
     46 H46         1.5070    4.1508   55.2776 H       1  ZINC000482187991    0.1500
     47 H47         3.3199    2.7234   54.3881 H       1  ZINC000482187991    0.0600
     48 H48         3.0321    1.9152   52.8284 H       1  ZINC000482187991    0.0600
     49 H49         4.4080    3.0293   53.0130 H       1  ZINC000482187991    0.1100
     50 H50         1.5352    1.5668   50.9737 H       1  ZINC000482187991    0.0500
     51 H51        -0.1480    1.6597   50.4023 H       1  ZINC000482187991    0.0500
     52 H52         1.1831    2.1720   49.3372 H       1  ZINC000482187991    0.1000
@<TRIPOS>BOND
     1     1     2    1
     2     1    31    1
     3     1    32    1
     4     1    33    1
     5     2     3    1
     6     3    28   ar
     7     3     4   ar
     8     4     5   ar
     9     4    34    1
    10     5     6    1
    11     5    24   ar
    12     6     7    2
    13     6     8    1
    14     8     9    1
    15     8    35    1
    16     8    36    1
    17     9    10    1
    18     9    37    1
    19     9    38    1
    20    10    11    2
    21    10    12   am
    22    12    13    1
    23    12    39    1
    24    13    14    1
    25    13    15    1
    26    13    21    1
    27    15    20   ar
    28    15    16   ar
    29    16    17   ar
    30    16    40    1
    31    17    18   ar
    32    17    41    1
    33    18    19   ar
    34    18    42    1
    35    19    20   ar
    36    19    43    1
    37    20    44    1
    38    21    22    1
    39    21    23    1
    40    21    45    1
    41    24    25   ar
    42    24    46    1
    43    25    26    1
    44    25    28   ar
    45    26    27    1
    46    27    47    1
    47    27    48    1
    48    27    49    1
    49    28    29    1
    50    29    30    1
    51    30    50    1
    52    30    51    1
    53    30    52    1
@<TRIPOS>SUBSTRUCTURE
     1 ZINC000482187991        1 TEMP              0 ****  ****    0 ROOT


##########                                Name:    ZINC000562561773
##########                DOCK_Rotatable_Bonds:                   6
##########                         Heavy_Atoms:                  26
##########                    Molecular_Weight:             371.466
##########                DOCK_Rotatable_Bonds:                   6
##########                       Formal_Charge:           0.0199999
##########                     HBond_Acceptors:                   9
##########                        HBond_Donors:                   0
##########                         Heavy_Atoms:                  26
##########                          Grid_Score:          -31.121178
##########                     Grid_vdw_energy:          -30.628517
##########                      Grid_es_energy:           -0.492660
##########           Internal_energy_repulsive:           11.872258

@<TRIPOS>MOLECULE
ZINC000562561773
 47 50 1 0 0
SMALL
USER_CHARGES


@<TRIPOS>ATOM
      1 C1          1.4018    1.3977   46.3696 C.3     1  ZINC000562561773   -0.1100
      2 C2          0.2880    1.7479   47.3225 C.ar    1  ZINC000562561773   -0.0400
      3 C3         -1.0128    1.8251   46.8635 C.ar    1  ZINC000562561773   -0.1200
      4 C4         -2.0379    2.1455   47.7316 C.ar    1  ZINC000562561773   -0.0700
      5 C5         -1.7624    2.3922   49.0750 C.ar    1  ZINC000562561773   -0.0300
      6 C6         -2.8634    2.7362   50.0092 C.2     1  ZINC000562561773    0.2200
      7 N7         -2.7419    3.3355   51.1649 N.2     1  ZINC000562561773   -0.3700
      8 O8         -3.8310    3.4696   51.6815 O.3     1  ZINC000562561773    0.0900
      9 C9         -4.7791    2.9579   50.8902 C.2     1  ZINC000562561773    0.1900
     10 C10        -6.2593    2.9277   51.1712 C.3     1  ZINC000562561773   -0.0100
     11 C11        -6.4933    2.9973   52.6815 C.3     1  ZINC000562561773   -0.1200
     12 S12        -8.2621    2.8280   53.0265 S.3     1  ZINC000562561773    0.0600
     13 C13        -8.4726    1.1079   52.7083 C.2     1  ZINC000562561773    0.2100
     14 N14        -7.5240    0.2458   52.4128 N.2     1  ZINC000562561773   -0.3300
     15 N15        -8.0191   -0.9266   52.2413 N.2     1  ZINC000562561773   -0.0300
     16 N16        -9.2968   -0.9026   52.4108 N.2     1  ZINC000562561773   -0.0700
     17 N17        -9.6407    0.4232   52.7274 N.pl3   1  ZINC000562561773   -0.3600
     18 C18       -10.9773    0.9526   53.0088 C.3     1  ZINC000562561773    0.0800
     19 N19        -4.1804    2.4938   49.8217 N.2     1  ZINC000562561773   -0.4600
     20 C20        -0.4520    2.3147   49.5390 C.ar    1  ZINC000562561773   -0.1100
     21 C21         0.5714    1.9868   48.6622 C.ar    1  ZINC000562561773    0.0800
     22 N22         1.8878    1.9073   49.1230 N.3     1  ZINC000562561773   -0.4800
     23 C23         2.3724    3.2345   49.5810 C.3     1  ZINC000562561773    0.0400
     24 C24         3.5640    2.8775   50.5047 C.3     1  ZINC000562561773   -0.1200
     25 C25         3.0773    1.5943   51.2164 C.3     1  ZINC000562561773   -0.1300
     26 C26         1.9849    1.0150   50.2985 C.3     1  ZINC000562561773    0.0400
     27 H27         1.5337    0.3159   46.3466 H       1  ZINC000562561773    0.0700
     28 H28         1.1509    1.7544   45.3706 H       1  ZINC000562561773    0.0600
     29 H29         2.3264    1.8694   46.7023 H       1  ZINC000562561773    0.0800
     30 H30        -1.2286    1.6346   45.8225 H       1  ZINC000562561773    0.1400
     31 H31        -3.0534    2.2053   47.3689 H       1  ZINC000562561773    0.1400
     32 H32        -6.7381    3.7803   50.6896 H       1  ZINC000562561773    0.1200
     33 H33        -6.6846    2.0035   50.7798 H       1  ZINC000562561773    0.1300
     34 H34        -5.9487    2.1901   53.1712 H       1  ZINC000562561773    0.1100
     35 H35        -6.1394    3.9562   53.0602 H       1  ZINC000562561773    0.1100
     36 H36       -11.1800    0.8784   54.0772 H       1  ZINC000562561773    0.1000
     37 H37       -11.0267    1.9972   52.7013 H       1  ZINC000562561773    0.1000
     38 H38       -11.7199    0.3760   52.4572 H       1  ZINC000562561773    0.1100
     39 H39        -0.2337    2.5054   50.5793 H       1  ZINC000562561773    0.1300
     40 H40         2.7077    3.8346   48.7350 H       1  ZINC000562561773    0.0900
     41 H41         1.5953    3.7560   50.1399 H       1  ZINC000562561773    0.0500
     42 H42         4.4603    2.6767   49.9177 H       1  ZINC000562561773    0.0800
     43 H43         3.7448    3.6740   51.2264 H       1  ZINC000562561773    0.0700
     44 H44         3.8985    0.8852   51.3213 H       1  ZINC000562561773    0.0800
     45 H45         2.6602    1.8387   52.1934 H       1  ZINC000562561773    0.0700
     46 H46         1.0313    0.9906   50.8259 H       1  ZINC000562561773    0.0500
     47 H47         2.2620    0.0101   49.9800 H       1  ZINC000562561773    0.0800
@<TRIPOS>BOND
     1     1     2    1
     2     1    27    1
     3     1    28    1
     4     1    29    1
     5     2    21   ar
     6     2     3   ar
     7     3     4   ar
     8     3    30    1
     9     4     5   ar
    10     4    31    1
    11     5     6    1
    12     5    20   ar
    13     6    19    1
    14     6     7    2
    15     7     8    1
    16     8     9    1
    17     9    10    1
    18     9    19    2
    19    10    11    1
    20    10    32    1
    21    10    33    1
    22    11    12    1
    23    11    34    1
    24    11    35    1
    25    12    13    1
    26    13    17    1
    27    13    14    2
    28    14    15    1
    29    15    16    2
    30    16    17    1
    31    17    18    1
    32    18    36    1
    33    18    37    1
    34    18    38    1
    35    20    21   ar
    36    20    39    1
    37    21    22    1
    38    22    26    1
    39    22    23    1
    40    23    24    1
    41    23    40    1
    42    23    41    1
    43    24    25    1
    44    24    42    1
    45    24    43    1
    46    25    26    1
    47    25    44    1
    48    25    45    1
    49    26    46    1
    50    26    47    1
@<TRIPOS>SUBSTRUCTURE
     1 ZINC000562561773        1 TEMP              0 ****  ****    0 ROOT


##########                                Name:    ZINC001327099466
##########                DOCK_Rotatable_Bonds:                   7
##########                         Heavy_Atoms:                  27
##########                    Molecular_Weight:             374.483
##########                DOCK_Rotatable_Bonds:                   7
##########                       Formal_Charge:           0.0199998
##########                     HBond_Acceptors:                   7
##########                        HBond_Donors:                   1
##########                         Heavy_Atoms:                  27
##########                          Grid_Score:          -31.114162
##########                     Grid_vdw_energy:          -29.118528
##########                      Grid_es_energy:           -1.995633
##########           Internal_energy_repulsive:           12.640471

@<TRIPOS>MOLECULE
ZINC001327099466
 57 60 1 0 0
SMALL
USER_CHARGES


@<TRIPOS>ATOM
      1 O1         -7.9894    2.7207   51.7146 O.2     1  ZINC001327099466   -0.4800
      2 C2         -7.5269    2.1670   52.6907 C.2     1  ZINC001327099466    0.5300
      3 N3         -6.2160    1.8561   52.7314 N.am    1  ZINC001327099466   -0.6000
      4 C4         -5.3895    2.1666   51.6459 C.2     1  ZINC001327099466    0.2900
      5 N5         -4.3230    2.9312   51.6826 N.2     1  ZINC001327099466   -0.3100
      6 N6         -3.7812    2.9870   50.3920 N.pl3   1  ZINC001327099466   -0.3500
      7 C7         -2.5849    3.7323   49.9925 C.3     1  ZINC001327099466    0.1700
      8 C8         -1.6496    3.8777   51.1946 C.3     1  ZINC001327099466   -0.1300
      9 C9         -0.4001    4.6559   50.7773 C.3     1  ZINC001327099466   -0.1200
     10 C10         0.3208    3.9014   49.6585 C.3     1  ZINC001327099466   -0.1300
     11 C11        -0.6145    3.7560   48.4565 C.3     1  ZINC001327099466   -0.1200
     12 C12        -1.8639    2.9777   48.8737 C.3     1  ZINC001327099466   -0.1300
     13 C13        -4.5538    2.2336   49.5810 C.2     1  ZINC001327099466    0.0700
     14 C14        -5.5520    1.7098   50.3276 C.2     1  ZINC001327099466   -0.2700
     15 C15        -8.4091    1.8355   53.8492 C.2     1  ZINC001327099466    0.5100
     16 O16        -9.1637    0.8872   53.7856 O.2     1  ZINC001327099466   -0.5100
     17 N17        -8.3675    2.5897   54.9655 N.am    1  ZINC001327099466   -0.5700
     18 C18        -7.4593    3.7411   55.0574 C.3     1  ZINC001327099466    0.0400
     19 C19        -6.6057    3.5961   56.3213 C.3     1  ZINC001327099466   -0.1300
     20 C20        -7.5228    3.4204   57.5339 C.3     1  ZINC001327099466   -0.1200
     21 C21        -8.3562    2.1480   57.3653 C.3     1  ZINC001327099466    0.0800
     22 H22        -7.6924    1.2898   57.2594 H       1  ZINC001327099466    0.0700
     23 O23        -9.1892    1.9678   58.5123 O.3     1  ZINC001327099466   -0.3500
     24 C24        -8.6008    1.1651   59.5377 C.3     1  ZINC001327099466    0.0600
     25 C25        -9.1612    1.4507   60.9411 C.3     1  ZINC001327099466   -0.1600
     26 C26       -10.2295    0.3846   60.6455 C.3     1  ZINC001327099466   -0.1400
     27 C27        -9.2257   -0.2347   59.6588 C.3     1  ZINC001327099466   -0.1400
     28 C28        -9.2335    2.2798   56.1111 C.3     1  ZINC001327099466    0.0900
     29 H29        -5.8457    1.4171   53.5130 H       1  ZINC001327099466    0.4300
     30 H30        -2.8747    4.7207   49.6360 H       1  ZINC001327099466    0.1000
     31 H31        -2.1631    4.4152   51.9916 H       1  ZINC001327099466    0.0700
     32 H32        -1.3597    2.8892   51.5510 H       1  ZINC001327099466    0.0700
     33 H33        -0.6899    5.6443   50.4208 H       1  ZINC001327099466    0.0700
     34 H34         0.2663    4.7595   51.6337 H       1  ZINC001327099466    0.0700
     35 H35         1.2109    4.4558   49.3612 H       1  ZINC001327099466    0.0700
     36 H36         0.6106    2.9129   50.0150 H       1  ZINC001327099466    0.0700
     37 H37        -0.9043    4.7444   48.0999 H       1  ZINC001327099466    0.0700
     38 H38        -0.1009    3.2184   47.6593 H       1  ZINC001327099466    0.0700
     39 H39        -1.5742    1.9892   49.2302 H       1  ZINC001327099466    0.0700
     40 H40        -2.5303    2.8741   48.0173 H       1  ZINC001327099466    0.0700
     41 H41        -4.3995    2.0743   48.5240 H       1  ZINC001327099466    0.1800
     42 H42        -6.3382    1.0601   49.9722 H       1  ZINC001327099466    0.1700
     43 H43        -6.8123    3.7672   54.1807 H       1  ZINC001327099466    0.1600
     44 H44        -8.0406    4.6615   55.1127 H       1  ZINC001327099466    0.0700
     45 H45        -5.9586    2.7244   56.2252 H       1  ZINC001327099466    0.0700
     46 H46        -5.9959    4.4899   56.4528 H       1  ZINC001327099466    0.0900
     47 H47        -6.9186    3.3417   58.4377 H       1  ZINC001327099466    0.0800
     48 H48        -8.1866    4.2812   57.6150 H       1  ZINC001327099466    0.0800
     49 H49        -7.5117    1.1550   59.4948 H       1  ZINC001327099466    0.0700
     50 H50        -8.4811    1.1754   61.7471 H       1  ZINC001327099466    0.0900
     51 H51        -9.5670    2.4560   61.0530 H       1  ZINC001327099466    0.0700
     52 H52       -10.4551   -0.2556   61.4983 H       1  ZINC001327099466    0.0700
     53 H53       -11.1235    0.7835   60.1661 H       1  ZINC001327099466    0.0800
     54 H54        -9.6835   -0.5899   58.7355 H       1  ZINC001327099466    0.0800
     55 H55        -8.5631   -0.9707   60.1142 H       1  ZINC001327099466    0.0900
     56 H56        -9.9586    3.0808   56.2551 H       1  ZINC001327099466    0.0900
     57 H57        -9.7552    1.3401   55.9296 H       1  ZINC001327099466    0.1000
@<TRIPOS>BOND
     1     1     2    2
     2     2     3   am
     3     2    15    1
     4     3     4    1
     5     3    29    1
     6     4    14    1
     7     4     5    2
     8     5     6    1
     9     6     7    1
    10     6    13    1
    11     7    12    1
    12     7     8    1
    13     7    30    1
    14     8     9    1
    15     8    31    1
    16     8    32    1
    17     9    10    1
    18     9    33    1
    19     9    34    1
    20    10    11    1
    21    10    35    1
    22    10    36    1
    23    11    12    1
    24    11    37    1
    25    11    38    1
    26    12    39    1
    27    12    40    1
    28    13    14    2
    29    13    41    1
    30    14    42    1
    31    15    16    2
    32    15    17   am
    33    17    28    1
    34    17    18    1
    35    18    19    1
    36    18    43    1
    37    18    44    1
    38    19    20    1
    39    19    45    1
    40    19    46    1
    41    20    21    1
    42    20    47    1
    43    20    48    1
    44    21    22    1
    45    21    23    1
    46    21    28    1
    47    23    24    1
    48    24    27    1
    49    24    25    1
    50    24    49    1
    51    25    26    1
    52    25    50    1
    53    25    51    1
    54    26    27    1
    55    26    52    1
    56    26    53    1
    57    27    54    1
    58    27    55    1
    59    28    56    1
    60    28    57    1
@<TRIPOS>SUBSTRUCTURE
     1 ZINC001327099466        1 TEMP              0 ****  ****    0 ROOT


##########                                Name:    ZINC000191003171
##########                DOCK_Rotatable_Bonds:                   6
##########                         Heavy_Atoms:                  26
##########                    Molecular_Weight:             389.414
##########                DOCK_Rotatable_Bonds:                   6
##########                       Formal_Charge:          -0.0200002
##########                     HBond_Acceptors:                   8
##########                        HBond_Donors:                   1
##########                         Heavy_Atoms:                  26
##########                          Grid_Score:          -31.103872
##########                     Grid_vdw_energy:          -28.526434
##########                      Grid_es_energy:           -2.577438
##########           Internal_energy_repulsive:           16.246746

@<TRIPOS>MOLECULE
ZINC000191003171
 45 46 1 0 0
SMALL
USER_CHARGES


@<TRIPOS>ATOM
      1 C1         -4.5542    3.0740   50.7227 C.3     1  ZINC000191003171   -0.1200
      2 C2         -3.1042    2.9133   50.3445 C.ar    1  ZINC000191003171   -0.0800
      3 C3         -2.7610    2.5841   49.0469 C.ar    1  ZINC000191003171   -0.0700
      4 C4         -1.4307    2.4367   48.7000 C.ar    1  ZINC000191003171   -0.1800
      5 C5         -1.0564    2.0772   47.2851 C.3     1  ZINC000191003171    0.5100
      6 F6         -0.8634    3.2468   46.5423 F       1  ZINC000191003171   -0.1800
      7 F7          0.1252    1.3283   47.2913 F       1  ZINC000191003171   -0.1800
      8 F8         -2.0837    1.3226   46.7083 F       1  ZINC000191003171   -0.1800
      9 C9         -0.4442    2.6194   49.6506 C.ar    1  ZINC000191003171   -0.0800
     10 C10        -0.7876    2.9492   50.9486 C.ar    1  ZINC000191003171   -0.1000
     11 C11        -2.1173    3.1008   51.2944 C.ar    1  ZINC000191003171   -0.0500
     12 C12        -2.4916    3.4602   52.7092 C.3     1  ZINC000191003171    0.0900
     13 N13        -1.2939    3.4168   53.5587 N.3     1  ZINC000191003171   -0.6800
     14 C14        -1.6534    3.5032   54.9804 C.3     1  ZINC000191003171    0.1200
     15 H15        -2.5408    2.8988   55.1682 H       1  ZINC000191003171    0.0600
     16 C16        -1.9425    4.9607   55.3457 C.3     1  ZINC000191003171   -0.1400
     17 C17        -0.5108    2.9922   55.8195 C.ar    1  ZINC000191003171   -0.0100
     18 C18        -0.7671    2.3174   56.9983 C.ar    1  ZINC000191003171   -0.1300
     19 C19         0.2803    1.8479   57.7692 C.ar    1  ZINC000191003171    0.0100
     20 C20         1.5847    2.0529   57.3619 C.ar    1  ZINC000191003171   -0.7000
     21 S21         2.9192    1.4544   58.3447 S.o2    1  ZINC000191003171    2.5000
     22 C22         3.7051    0.1842   57.3154 C.3     1  ZINC000191003171   -0.6500
     23 O23         3.7769    2.5777   58.4923 O.2     1  ZINC000191003171   -0.9300
     24 O24         2.2869    0.8625   59.4712 O.2     1  ZINC000191003171   -0.9300
     25 C25         1.8427    2.7283   56.1809 C.ar    1  ZINC000191003171    0.1900
     26 F26         3.1176    2.9293   55.7817 F       1  ZINC000191003171   -0.1200
     27 C27         0.7930    3.1934   55.4072 C.ar    1  ZINC000191003171   -0.1700
     28 H28        -4.8572    4.1097   50.5688 H       1  ZINC000191003171    0.0800
     29 H29        -5.1663    2.4203   50.1015 H       1  ZINC000191003171    0.0800
     30 H30        -4.6877    2.8084   51.7714 H       1  ZINC000191003171    0.0600
     31 H31        -3.5318    2.4417   48.3040 H       1  ZINC000191003171    0.1400
     32 H32         0.5948    2.5042   49.3797 H       1  ZINC000191003171    0.1400
     33 H33        -0.0168    3.0916   51.6915 H       1  ZINC000191003171    0.1400
     34 H34        -2.9149    4.4644   52.7291 H       1  ZINC000191003171    0.0900
     35 H35        -3.2277    2.7482   53.0823 H       1  ZINC000191003171    0.0500
     36 H36        -0.7489    2.5881   53.3733 H       1  ZINC000191003171    0.3500
     37 H37        -2.2092    5.0248   56.4006 H       1  ZINC000191003171    0.0600
     38 H38        -1.0550    5.5651   55.1579 H       1  ZINC000191003171    0.0700
     39 H39        -2.7689    5.3303   54.7387 H       1  ZINC000191003171    0.0600
     40 H40        -1.7863    2.1571   57.3176 H       1  ZINC000191003171    0.1500
     41 H41         0.0789    1.3211   58.6903 H       1  ZINC000191003171    0.1600
     42 H42         4.0541    0.6343   56.3860 H       1  ZINC000191003171    0.1300
     43 H43         4.5516   -0.2452   57.8512 H       1  ZINC000191003171    0.1400
     44 H44         2.9820   -0.5997   57.0903 H       1  ZINC000191003171    0.1300
     45 H45         0.9931    3.7199   54.4857 H       1  ZINC000191003171    0.1500
@<TRIPOS>BOND
     1     1     2    1
     2     1    28    1
     3     1    29    1
     4     1    30    1
     5     2    11   ar
     6     2     3   ar
     7     3     4   ar
     8     3    31    1
     9     4     5    1
    10     4     9   ar
    11     5     6    1
    12     5     7    1
    13     5     8    1
    14     9    10   ar
    15     9    32    1
    16    10    11   ar
    17    10    33    1
    18    11    12    1
    19    12    13    1
    20    12    34    1
    21    12    35    1
    22    13    14    1
    23    13    36    1
    24    14    15    1
    25    14    16    1
    26    14    17    1
    27    16    37    1
    28    16    38    1
    29    16    39    1
    30    17    27   ar
    31    17    18   ar
    32    18    19   ar
    33    18    40    1
    34    19    20   ar
    35    19    41    1
    36    20    21    1
    37    20    25   ar
    38    21    22    1
    39    21    23    2
    40    21    24    2
    41    22    42    1
    42    22    43    1
    43    22    44    1
    44    25    26    1
    45    25    27   ar
    46    27    45    1
@<TRIPOS>SUBSTRUCTURE
     1 ZINC000191003171        1 TEMP              0 ****  ****    0 ROOT


##########                                Name:    ZINC000502834785
##########                DOCK_Rotatable_Bonds:                   9
##########                         Heavy_Atoms:                  26
##########                    Molecular_Weight:             356.468
##########                DOCK_Rotatable_Bonds:                   9
##########                       Formal_Charge:           0.0199998
##########                     HBond_Acceptors:                   6
##########                        HBond_Donors:                   2
##########                         Heavy_Atoms:                  26
##########                          Grid_Score:          -31.100595
##########                     Grid_vdw_energy:          -31.562363
##########                      Grid_es_energy:            0.461768
##########           Internal_energy_repulsive:           16.095327

@<TRIPOS>MOLECULE
ZINC000502834785
 54 56 1 0 0
SMALL
USER_CHARGES


@<TRIPOS>ATOM
      1 C1         -6.8569   -0.8573   51.8468 C.3     1  ZINC000502834785   -0.1800
      2 C2         -7.0863    0.6499   51.7179 C.3     1  ZINC000502834785    0.0800
      3 C3         -8.0956    1.1043   52.7743 C.3     1  ZINC000502834785   -0.1500
      4 O4         -5.8494    1.3384   51.9136 O.3     1  ZINC000502834785   -0.3800
      5 C5         -5.7621    2.5848   51.2201 C.3     1  ZINC000502834785    0.1000
      6 C6         -4.3137    2.9301   50.9880 C.ar    1  ZINC000502834785   -0.0800
      7 C7         -3.7612    2.7830   49.7294 C.ar    1  ZINC000502834785   -0.1000
      8 C8         -2.4326    3.0998   49.5165 C.ar    1  ZINC000502834785   -0.1000
      9 C9         -1.6566    3.5640   50.5621 C.ar    1  ZINC000502834785   -0.1000
     10 C10        -0.2080    3.9088   50.3301 C.3     1  ZINC000502834785    0.1600
     11 N11         0.5173    2.7093   49.9043 N.am    1  ZINC000502834785   -0.7300
     12 C12         1.8076    2.5419   50.2556 C.2     1  ZINC000502834785    0.5100
     13 O13         2.3679    3.3834   50.9254 O.2     1  ZINC000502834785   -0.5200
     14 C14         2.5543    1.3088   49.8160 C.3     1  ZINC000502834785    0.0300
     15 N15         3.3090    1.6042   48.5908 N.3     1  ZINC000502834785   -0.5000
     16 C16         2.3972    1.8667   47.4570 C.3     1  ZINC000502834785    0.0500
     17 C17         3.1401    1.3132   46.2155 C.3     1  ZINC000502834785   -0.1300
     18 C18         3.8231    0.0476   46.7974 C.3     1  ZINC000502834785   -0.1300
     19 C19         4.1937    0.4808   48.2314 C.3     1  ZINC000502834785    0.1500
     20 H20         5.2345    0.8032   48.2641 H       1  ZINC000502834785    0.1100
     21 C21         3.9829   -0.6674   49.1844 C.2     1  ZINC000502834785    0.0600
     22 N22         3.0427   -1.5732   49.0982 N.2     1  ZINC000502834785   -0.2900
     23 N23         3.1907   -2.4613   50.1715 N.pl3   1  ZINC000502834785   -0.4800
     24 C24         4.2505   -2.0565   50.9022 C.2     1  ZINC000502834785    0.0600
     25 C25         4.7621   -0.9523   50.3106 C.2     1  ZINC000502834785   -0.2600
     26 C26        -2.2094    3.7123   51.8203 C.ar    1  ZINC000502834785   -0.1000
     27 C27        -3.5390    3.3992   52.0324 C.ar    1  ZINC000502834785   -0.1000
     28 H28        -6.1379   -1.1810   51.0943 H       1  ZINC000502834785    0.0600
     29 H29        -6.4691   -1.0822   52.8404 H       1  ZINC000502834785    0.0600
     30 H30        -7.8004   -1.3825   51.6976 H       1  ZINC000502834785    0.0700
     31 H31        -7.4742    0.8748   50.7244 H       1  ZINC000502834785    0.0600
     32 H32        -7.7078    0.8794   53.7678 H       1  ZINC000502834785    0.0600
     33 H33        -8.2590    2.1780   52.6824 H       1  ZINC000502834785    0.0600
     34 H34        -9.0390    0.5792   52.6250 H       1  ZINC000502834785    0.0700
     35 H35        -6.2745    2.5039   50.2615 H       1  ZINC000502834785    0.0600
     36 H36        -6.2308    3.3667   51.8177 H       1  ZINC000502834785    0.0600
     37 H37        -4.3675    2.4204   48.9126 H       1  ZINC000502834785    0.1300
     38 H38        -2.0008    2.9842   48.5334 H       1  ZINC000502834785    0.1300
     39 H39        -0.1358    4.6715   49.5547 H       1  ZINC000502834785    0.0800
     40 H40         0.2278    4.2880   51.2544 H       1  ZINC000502834785    0.0800
     41 H41         0.0689    2.0356   49.3695 H       1  ZINC000502834785    0.4000
     42 H42         3.2438    1.0019   50.6024 H       1  ZINC000502834785    0.1000
     43 H43         1.8447    0.5048   49.6207 H       1  ZINC000502834785    0.0800
     44 H44         1.4531    1.3410   47.5999 H       1  ZINC000502834785    0.0400
     45 H45         2.2238    2.9374   47.3495 H       1  ZINC000502834785    0.1000
     46 H46         2.4372    1.0492   45.4254 H       1  ZINC000502834785    0.0800
     47 H47         3.8816    2.0258   45.8544 H       1  ZINC000502834785    0.0800
     48 H48         3.1277   -0.7916   46.8159 H       1  ZINC000502834785    0.0800
     49 H49         4.7175   -0.2041   46.2276 H       1  ZINC000502834785    0.0800
     50 H50         2.6305   -3.2312   50.3565 H       1  ZINC000502834785    0.4400
     51 H51         4.6259   -2.5314   51.7967 H       1  ZINC000502834785    0.1800
     52 H52         5.6171   -0.3872   50.6512 H       1  ZINC000502834785    0.1500
     53 H53        -1.6032    4.0754   52.6372 H       1  ZINC000502834785    0.1300
     54 H54        -3.9710    3.5151   53.0154 H       1  ZINC000502834785    0.1200
@<TRIPOS>BOND
     1     1     2    1
     2     1    28    1
     3     1    29    1
     4     1    30    1
     5     2     3    1
     6     2     4    1
     7     2    31    1
     8     3    32    1
     9     3    33    1
    10     3    34    1
    11     4     5    1
    12     5     6    1
    13     5    35    1
    14     5    36    1
    15     6    27   ar
    16     6     7   ar
    17     7     8   ar
    18     7    37    1
    19     8     9   ar
    20     8    38    1
    21     9    10    1
    22     9    26   ar
    23    10    11    1
    24    10    39    1
    25    10    40    1
    26    11    12   am
    27    11    41    1
    28    12    13    2
    29    12    14    1
    30    14    15    1
    31    14    42    1
    32    14    43    1
    33    15    19    1
    34    15    16    1
    35    16    17    1
    36    16    44    1
    37    16    45    1
    38    17    18    1
    39    17    46    1
    40    17    47    1
    41    18    19    1
    42    18    48    1
    43    18    49    1
    44    19    20    1
    45    19    21    1
    46    21    25    1
    47    21    22    2
    48    22    23    1
    49    23    24    1
    50    23    50    1
    51    24    25    2
    52    24    51    1
    53    25    52    1
    54    26    27   ar
    55    26    53    1
    56    27    54    1
@<TRIPOS>SUBSTRUCTURE
     1 ZINC000502834785        1 TEMP              0 ****  ****    0 ROOT


##########                                Name:    ZINC000772422035
##########                DOCK_Rotatable_Bonds:                  10
##########                         Heavy_Atoms:                  25
##########                    Molecular_Weight:             348.399
##########                DOCK_Rotatable_Bonds:                  10
##########                       Formal_Charge:          0.00999987
##########                     HBond_Acceptors:                   7
##########                        HBond_Donors:                   0
##########                         Heavy_Atoms:                  25
##########                          Grid_Score:          -31.063656
##########                     Grid_vdw_energy:          -30.189232
##########                      Grid_es_energy:           -0.874423
##########           Internal_energy_repulsive:           15.180538

@<TRIPOS>MOLECULE
ZINC000772422035
 49 50 1 0 0
SMALL
USER_CHARGES


@<TRIPOS>ATOM
      1 C1        -15.0567   -3.7442   45.0808 C.3     1  ZINC000772422035    0.0300
      2 O2        -16.0889   -3.2682   45.9469 O.3     1  ZINC000772422035   -0.3900
      3 C3        -15.6107   -2.5057   47.0568 C.3     1  ZINC000772422035    0.0600
      4 C4        -14.7916   -1.3191   46.5452 C.3     1  ZINC000772422035    0.0700
      5 O5        -14.3745   -0.5160   47.6512 O.3     1  ZINC000772422035   -0.3000
      6 C6        -13.5855    0.5523   47.3738 C.ar    1  ZINC000772422035    0.3300
      7 C7        -13.1898    1.3999   48.4003 C.ar    1  ZINC000772422035   -0.1700
      8 C8        -12.3847    2.4862   48.1040 C.ar    1  ZINC000772422035   -0.0200
      9 C9        -11.9333    3.4296   49.1891 C.3     1  ZINC000772422035    0.1100
     10 O10       -10.6363    3.0084   49.6878 O.3     1  ZINC000772422035   -0.3500
     11 C11       -10.0624    3.7818   50.6229 C.2     1  ZINC000772422035    0.4700
     12 O12       -10.5793    4.8258   50.9438 O.2     1  ZINC000772422035   -0.5000
     13 C13        -8.7736    3.3481   51.2723 C.3     1  ZINC000772422035   -0.1100
     14 C14        -9.0849    2.5006   52.5075 C.3     1  ZINC000772422035    0.0000
     15 H15       -10.1622    2.3534   52.5850 H       1  ZINC000772422035    0.1000
     16 C16        -8.5768    3.2180   53.7597 C.3     1  ZINC000772422035   -0.1500
     17 C17        -8.4028    1.1625   52.3836 C.2     1  ZINC000772422035   -0.2000
     18 C18        -8.9355   -0.0668   52.5824 C.2     1  ZINC000772422035   -0.0200
     19 C19       -10.3546   -0.3817   52.9800 C.3     1  ZINC000772422035   -0.0800
     20 O20        -7.9512   -0.9481   52.3557 O.3     1  ZINC000772422035    0.1000
     21 N21        -6.9200   -0.3944   52.0523 N.2     1  ZINC000772422035   -0.3600
     22 C22        -7.0603    0.8996   52.0268 C.2     1  ZINC000772422035    0.0300
     23 C23        -5.9992    1.9162   51.6929 C.3     1  ZINC000772422035   -0.0800
     24 C24       -12.0024    2.6867   46.7850 C.ar    1  ZINC000772422035   -0.1900
     25 C25       -12.4334    1.8032   45.8151 C.ar    1  ZINC000772422035    0.1400
     26 N26       -13.1959    0.7733   46.1292 N.ar    1  ZINC000772422035   -0.5300
     27 H27       -15.5012   -4.3131   44.2642 H       1  ZINC000772422035    0.0900
     28 H28       -14.5038   -2.8972   44.6748 H       1  ZINC000772422035    0.0400
     29 H29       -14.3778   -4.3855   45.6430 H       1  ZINC000772422035    0.0400
     30 H30       -16.4572   -2.1394   47.6377 H       1  ZINC000772422035    0.0600
     31 H31       -14.9831   -3.1358   47.6870 H       1  ZINC000772422035    0.0700
     32 H32       -13.9147   -1.6860   46.0116 H       1  ZINC000772422035    0.0800
     33 H33       -15.4028   -0.7194   45.8707 H       1  ZINC000772422035    0.0800
     34 H34       -13.5063    1.2143   49.4160 H       1  ZINC000772422035    0.1400
     35 H35       -11.8567    4.4388   48.7844 H       1  ZINC000772422035    0.0900
     36 H36       -12.6569    3.4189   50.0041 H       1  ZINC000772422035    0.0900
     37 H37        -8.1906    2.7587   50.5647 H       1  ZINC000772422035    0.1100
     38 H38        -8.2026    4.2276   51.5697 H       1  ZINC000772422035    0.1100
     39 H39        -7.5266    3.4785   53.6282 H       1  ZINC000772422035    0.0600
     40 H40        -9.1588    4.1256   53.9197 H       1  ZINC000772422035    0.0800
     41 H41        -8.6830    2.5612   54.6230 H       1  ZINC000772422035    0.0600
     42 H42       -10.9833   -0.4105   52.0901 H       1  ZINC000772422035    0.0900
     43 H43       -10.3858   -1.3505   53.4785 H       1  ZINC000772422035    0.0900
     44 H44       -10.7210    0.3882   53.6591 H       1  ZINC000772422035    0.0900
     45 H45        -6.0609    2.1717   50.6351 H       1  ZINC000772422035    0.0800
     46 H46        -6.1535    2.8130   52.2929 H       1  ZINC000772422035    0.0800
     47 H47        -5.0155    1.4993   51.9092 H       1  ZINC000772422035    0.0800
     48 H48       -11.3750    3.5248   46.5199 H       1  ZINC000772422035    0.1400
     49 H49       -12.1386    1.9546   44.7872 H       1  ZINC000772422035    0.1700
@<TRIPOS>BOND
     1     1     2    1
     2     1    27    1
     3     1    28    1
     4     1    29    1
     5     2     3    1
     6     3     4    1
     7     3    30    1
     8     3    31    1
     9     4     5    1
    10     4    32    1
    11     4    33    1
    12     5     6    1
    13     6    26   ar
    14     6     7   ar
    15     7     8   ar
    16     7    34    1
    17     8     9    1
    18     8    24   ar
    19     9    10    1
    20     9    35    1
    21     9    36    1
    22    10    11    1
    23    11    12    2
    24    11    13    1
    25    13    14    1
    26    13    37    1
    27    13    38    1
    28    14    15    1
    29    14    16    1
    30    14    17    1
    31    16    39    1
    32    16    40    1
    33    16    41    1
    34    17    22    1
    35    17    18    2
    36    18    19    1
    37    18    20    1
    38    19    42    1
    39    19    43    1
    40    19    44    1
    41    20    21    1
    42    21    22    2
    43    22    23    1
    44    23    45    1
    45    23    46    1
    46    23    47    1
    47    24    25   ar
    48    24    48    1
    49    25    26   ar
    50    25    49    1
@<TRIPOS>SUBSTRUCTURE
     1 ZINC000772422035        1 TEMP              0 ****  ****    0 ROOT


##########                                Name:    ZINC000745364361
##########                DOCK_Rotatable_Bonds:                   8
##########                         Heavy_Atoms:                  29
##########                    Molecular_Weight:             398.434
##########                DOCK_Rotatable_Bonds:                   8
##########                       Formal_Charge:          0.00999923
##########                     HBond_Acceptors:                   7
##########                        HBond_Donors:                   1
##########                         Heavy_Atoms:                  29
##########                          Grid_Score:          -31.039392
##########                     Grid_vdw_energy:          -28.983221
##########                      Grid_es_energy:           -2.056171
##########           Internal_energy_repulsive:           11.112683

@<TRIPOS>MOLECULE
ZINC000745364361
 52 54 1 0 0
SMALL
USER_CHARGES


@<TRIPOS>ATOM
      1 C1         -8.2603    2.1414   52.5460 C.3     1  ZINC000745364361   -0.1700
      2 C2         -6.9758    2.6731   53.1850 C.3     1  ZINC000745364361    0.0700
      3 H3         -6.5953    1.9420   53.8983 H       1  ZINC000745364361    0.1100
      4 O4         -7.2579    3.9199   53.8737 O.3     1  ZINC000745364361   -0.3200
      5 C5         -7.7399    3.8303   55.1232 C.2     1  ZINC000745364361    0.4700
      6 O6         -8.8428    4.2535   55.3770 O.2     1  ZINC000745364361   -0.4900
      7 C7         -6.9056    3.2017   56.2094 C.3     1  ZINC000745364361   -0.0400
      8 H8         -6.7870    2.1374   56.0066 H       1  ZINC000745364361    0.1200
      9 C9         -5.5298    3.8701   56.2470 C.3     1  ZINC000745364361   -0.1400
     10 C10        -7.5903    3.3864   57.5391 C.ar    1  ZINC000745364361   -0.0500
     11 C11        -8.0629    2.2875   58.2315 C.ar    1  ZINC000745364361   -0.1000
     12 C12        -8.6912    2.4555   59.4516 C.ar    1  ZINC000745364361   -0.0900
     13 C13        -8.8474    3.7226   59.9803 C.ar    1  ZINC000745364361   -0.1500
     14 C14        -8.3739    4.8244   59.2876 C.ar    1  ZINC000745364361    0.1000
     15 F15        -8.5262    6.0637   59.8034 F       1  ZINC000745364361   -0.1400
     16 C16        -7.7404    4.6544   58.0686 C.ar    1  ZINC000745364361   -0.1400
     17 C17        -5.9439    2.9135   52.1133 C.2     1  ZINC000745364361    0.5200
     18 O18        -6.0939    3.8178   51.3189 O.2     1  ZINC000745364361   -0.5000
     19 N19        -4.8544    2.1238   52.0376 N.am    1  ZINC000745364361   -0.6700
     20 C20        -3.8953    2.3473   51.0414 C.ar    1  ZINC000745364361    0.1200
     21 C21        -4.1875    2.0495   49.7169 C.ar    1  ZINC000745364361   -0.1100
     22 C22        -3.2424    2.2697   48.7352 C.ar    1  ZINC000745364361   -0.1400
     23 C23        -1.9994    2.7894   49.0721 C.ar    1  ZINC000745364361    0.1500
     24 N24        -1.0402    3.0124   48.0760 N.am    1  ZINC000745364361   -0.5600
     25 C25        -0.5713    1.9893   47.1340 C.3     1  ZINC000745364361    0.0900
     26 C26         0.1148    2.7668   45.9890 C.3     1  ZINC000745364361   -0.1300
     27 C27         0.5358    4.0725   46.7024 C.3     1  ZINC000745364361   -0.1500
     28 C28        -0.4352    4.1924   47.8563 C.2     1  ZINC000745364361    0.5200
     29 O29        -0.6334    5.2043   48.4951 O.2     1  ZINC000745364361   -0.5100
     30 C30        -1.7077    3.0885   50.3964 C.ar    1  ZINC000745364361   -0.1400
     31 C31        -2.6543    2.8718   51.3776 C.ar    1  ZINC000745364361   -0.0900
     32 H32        -9.0066    1.9675   53.3211 H       1  ZINC000745364361    0.0800
     33 H33        -8.6408    2.8725   51.8327 H       1  ZINC000745364361    0.0800
     34 H34        -8.0485    1.2055   52.0291 H       1  ZINC000745364361    0.0800
     35 H35        -5.6484    4.9345   56.4499 H       1  ZINC000745364361    0.0700
     36 H36        -4.9264    3.4155   57.0326 H       1  ZINC000745364361    0.0800
     37 H37        -5.0346    3.7365   55.2852 H       1  ZINC000745364361    0.0800
     38 H38        -7.9416    1.2968   57.8190 H       1  ZINC000745364361    0.1300
     39 H39        -9.0604    1.5961   59.9916 H       1  ZINC000745364361    0.1400
     40 H40        -9.3389    3.8537   60.9329 H       1  ZINC000745364361    0.1400
     41 H41        -7.3704    5.5129   57.5277 H       1  ZINC000745364361    0.1400
     42 H42        -4.7345    1.4006   52.6727 H       1  ZINC000745364361    0.4100
     43 H43        -5.1542    1.6453   49.4548 H       1  ZINC000745364361    0.1300
     44 H44        -3.4693    2.0374   47.7052 H       1  ZINC000745364361    0.1600
     45 H45         0.1441    1.3270   47.6217 H       1  ZINC000745364361    0.0800
     46 H46        -1.4147    1.4165   46.7485 H       1  ZINC000745364361    0.0900
     47 H47         0.9859    2.2267   45.6179 H       1  ZINC000745364361    0.1000
     48 H48        -0.5878    2.9726   45.1814 H       1  ZINC000745364361    0.0900
     49 H49         1.5600    3.9948   47.0670 H       1  ZINC000745364361    0.1100
     50 H50         0.4327    4.9246   46.0306 H       1  ZINC000745364361    0.1100
     51 H51        -0.7412    3.4929   50.6584 H       1  ZINC000745364361    0.1300
     52 H52        -2.4273    3.1044   52.4076 H       1  ZINC000745364361    0.1400
@<TRIPOS>BOND
     1     1     2    1
     2     1    32    1
     3     1    33    1
     4     1    34    1
     5     2     3    1
     6     2     4    1
     7     2    17    1
     8     4     5    1
     9     5     6    2
    10     5     7    1
    11     7     8    1
    12     7     9    1
    13     7    10    1
    14     9    35    1
    15     9    36    1
    16     9    37    1
    17    10    16   ar
    18    10    11   ar
    19    11    12   ar
    20    11    38    1
    21    12    13   ar
    22    12    39    1
    23    13    14   ar
    24    13    40    1
    25    14    15    1
    26    14    16   ar
    27    16    41    1
    28    17    18    2
    29    17    19   am
    30    19    20    1
    31    19    42    1
    32    20    31   ar
    33    20    21   ar
    34    21    22   ar
    35    21    43    1
    36    22    23   ar
    37    22    44    1
    38    23    24    1
    39    23    30   ar
    40    24    28   am
    41    24    25    1
    42    25    26    1
    43    25    45    1
    44    25    46    1
    45    26    27    1
    46    26    47    1
    47    26    48    1
    48    27    28    1
    49    27    49    1
    50    27    50    1
    51    28    29    2
    52    30    31   ar
    53    30    51    1
    54    31    52    1
@<TRIPOS>SUBSTRUCTURE
     1 ZINC000745364361        1 TEMP              0 ****  ****    0 ROOT


##########                                Name:    ZINC000151820600
##########                DOCK_Rotatable_Bonds:                  10
##########                         Heavy_Atoms:                  25
##########                    Molecular_Weight:             388.915
##########                DOCK_Rotatable_Bonds:                  10
##########                       Formal_Charge:           0.0499998
##########                     HBond_Acceptors:                   8
##########                        HBond_Donors:                   2
##########                         Heavy_Atoms:                  25
##########                          Grid_Score:          -31.035578
##########                     Grid_vdw_energy:          -29.367031
##########                      Grid_es_energy:           -1.668546
##########           Internal_energy_repulsive:           36.500702

@<TRIPOS>MOLECULE
ZINC000151820600
 50 50 1 0 0
SMALL
USER_CHARGES


@<TRIPOS>ATOM
      1 C1         -6.7926   -1.4640   51.5999 C.3     1  ZINC000151820600   -0.4900
      2 S2         -7.3805    0.1537   52.1726 S.o     1  ZINC000151820600    1.2500
      3 O3         -8.7882    0.2356   51.9962 O.2     1  ZINC000151820600   -0.8500
      4 C4         -6.5609    1.3099   51.0405 C.3     1  ZINC000151820600   -0.4500
      5 C5         -6.9608    2.7429   51.3974 C.3     1  ZINC000151820600   -0.1100
      6 C6         -6.4175    3.0937   52.7841 C.3     1  ZINC000151820600    0.1200
      7 N7         -4.9634    3.2570   52.7118 N.am    1  ZINC000151820600   -0.7200
      8 C8         -4.4325    4.4743   52.4821 C.2     1  ZINC000151820600    0.5200
      9 O9         -5.1588    5.4344   52.3338 O.2     1  ZINC000151820600   -0.5200
     10 C10        -2.9368    4.6426   52.4096 C.3     1  ZINC000151820600    0.1900
     11 H11        -2.6586    5.6068   52.8353 H       1  ZINC000151820600    0.1300
     12 N12        -2.2873    3.5692   53.1661 N.am    1  ZINC000151820600   -0.6900
     13 C13        -1.9702    3.7551   54.4628 C.2     1  ZINC000151820600    0.6600
     14 O14        -2.2217    4.8136   55.0040 O.2     1  ZINC000151820600   -0.5600
     15 O15        -1.3748    2.7681   55.1584 O.3     1  ZINC000151820600   -0.3600
     16 C16        -0.9076    3.0923   56.4944 C.3     1  ZINC000151820600    0.1400
     17 C17        -0.1790    1.8845   57.0871 C.3     1  ZINC000151820600   -0.1800
     18 C18         0.0514    4.2824   56.4244 C.3     1  ZINC000151820600   -0.1400
     19 C19        -2.1026    3.4517   57.3795 C.3     1  ZINC000151820600   -0.1800
     20 C20        -2.4936    4.5821   50.9705 C.ar    1  ZINC000151820600   -0.1000
     21 C21        -1.9137    5.6886   50.3790 C.ar    1  ZINC000151820600   -0.0900
     22 C22        -1.5064    5.6337   49.0589 C.ar    1  ZINC000151820600   -0.1000
     23 C23        -1.6793    4.4725   48.3299 C.ar    1  ZINC000151820600   -0.1000
     24 C24        -2.2599    3.3645   48.9215 C.ar    1  ZINC000151820600   -0.0300
     25 Cl25       -2.4770    1.9052   48.0065 Cl      1  ZINC000151820600   -0.0600
     26 C26        -2.6620    3.4183   50.2439 C.ar    1  ZINC000151820600   -0.0900
     27 H27        -7.0903   -1.6122   50.5619 H       1  ZINC000151820600    0.0800
     28 H28        -5.7059   -1.5032   51.6754 H       1  ZINC000151820600    0.1100
     29 H29        -7.2282   -2.2488   52.2183 H       1  ZINC000151820600    0.1100
     30 H30        -5.4800    1.2014   51.1300 H       1  ZINC000151820600    0.1200
     31 H31        -6.8644    1.0924   50.0164 H       1  ZINC000151820600    0.0900
     32 H32        -6.5459    3.4303   50.6601 H       1  ZINC000151820600    0.0800
     33 H33        -8.0476    2.8267   51.4011 H       1  ZINC000151820600    0.0900
     34 H34        -6.8710    4.0236   53.1273 H       1  ZINC000151820600    0.0800
     35 H35        -6.6589    2.2923   53.4823 H       1  ZINC000151820600    0.0700
     36 H36        -4.3826    2.4890   52.8293 H       1  ZINC000151820600    0.4000
     37 H37        -2.0855    2.7246   52.7337 H       1  ZINC000151820600    0.4200
     38 H38         0.6725    1.6284   56.4564 H       1  ZINC000151820600    0.0600
     39 H39         0.1718    2.1279   58.0899 H       1  ZINC000151820600    0.0700
     40 H40        -0.8622    1.0366   57.1369 H       1  ZINC000151820600    0.0900
     41 H41        -0.4676    5.1430   56.0022 H       1  ZINC000151820600    0.0700
     42 H42         0.4022    4.5259   57.4273 H       1  ZINC000151820600    0.0800
     43 H43         0.9029    4.0264   55.7938 H       1  ZINC000151820600    0.0700
     44 H44        -2.7859    2.6039   57.4294 H       1  ZINC000151820600    0.0900
     45 H45        -1.7518    3.6951   58.3823 H       1  ZINC000151820600    0.0700
     46 H46        -2.6217    4.3122   56.9573 H       1  ZINC000151820600    0.0600
     47 H47        -1.7790    6.5965   50.9482 H       1  ZINC000151820600    0.1300
     48 H48        -1.0533    6.4985   48.5972 H       1  ZINC000151820600    0.1400
     49 H49        -1.3618    4.4300   47.2985 H       1  ZINC000151820600    0.1400
     50 H50        -3.1151    2.5538   50.7063 H       1  ZINC000151820600    0.1400
@<TRIPOS>BOND
     1     1     2    1
     2     1    27    1
     3     1    28    1
     4     1    29    1
     5     2     3    2
     6     2     4    1
     7     4     5    1
     8     4    30    1
     9     4    31    1
    10     5     6    1
    11     5    32    1
    12     5    33    1
    13     6     7    1
    14     6    34    1
    15     6    35    1
    16     7     8   am
    17     7    36    1
    18     8     9    2
    19     8    10    1
    20    10    11    1
    21    10    12    1
    22    10    20    1
    23    12    13   am
    24    12    37    1
    25    13    14    2
    26    13    15    1
    27    15    16    1
    28    16    17    1
    29    16    18    1
    30    16    19    1
    31    17    38    1
    32    17    39    1
    33    17    40    1
    34    18    41    1
    35    18    42    1
    36    18    43    1
    37    19    44    1
    38    19    45    1
    39    19    46    1
    40    20    26   ar
    41    20    21   ar
    42    21    22   ar
    43    21    47    1
    44    22    23   ar
    45    22    48    1
    46    23    24   ar
    47    23    49    1
    48    24    25    1
    49    24    26   ar
    50    26    50    1
@<TRIPOS>SUBSTRUCTURE
     1 ZINC000151820600        1 TEMP              0 ****  ****    0 ROOT


##########                                Name:    ZINC000807524472
##########                DOCK_Rotatable_Bonds:                   9
##########                         Heavy_Atoms:                  28
##########                    Molecular_Weight:             410.534
##########                DOCK_Rotatable_Bonds:                   9
##########                       Formal_Charge:           0.0200006
##########                     HBond_Acceptors:                   8
##########                        HBond_Donors:                   0
##########                         Heavy_Atoms:                  28
##########                          Grid_Score:          -31.024891
##########                     Grid_vdw_energy:          -30.198589
##########                      Grid_es_energy:           -0.826303
##########           Internal_energy_repulsive:           14.306629

@<TRIPOS>MOLECULE
ZINC000807524472
 58 60 1 0 0
SMALL
USER_CHARGES


@<TRIPOS>ATOM
      1 C1        -18.0600   -3.0160   60.4156 C.3     1  ZINC000807524472   -0.1500
      2 C2        -16.7364   -2.6322   61.0804 C.3     1  ZINC000807524472    0.0600
      3 O3        -16.9994   -1.9928   62.3310 O.3     1  ZINC000807524472   -0.3800
      4 C4        -15.8338   -1.7740   63.1284 C.3     1  ZINC000807524472    0.0600
      5 C5        -14.9555   -0.7103   62.4667 C.3     1  ZINC000807524472    0.0700
      6 O6        -14.0212   -1.3507   61.5583 O.3     1  ZINC000807524472   -0.3500
      7 C7        -13.2806   -0.5438   60.7731 C.2     1  ZINC000807524472    0.5000
      8 O8        -13.6137    0.6127   60.6047 O.2     1  ZINC000807524472   -0.4600
      9 C9        -12.0675   -1.0635   60.1191 C.ar    1  ZINC000807524472   -0.1200
     10 C10       -12.1638   -2.0787   59.1633 C.ar    1  ZINC000807524472    0.0400
     11 C11       -11.0252   -2.5599   58.5550 C.ar    1  ZINC000807524472   -0.7000
     12 S12       -11.1498   -3.8393   57.3499 S.o2    1  ZINC000807524472    2.6900
     13 O13        -9.8388   -4.3613   57.1818 O.2     1  ZINC000807524472   -0.9500
     14 O14       -12.2622   -4.6390   57.7272 O.2     1  ZINC000807524472   -0.9500
     15 N15       -11.5554   -3.1221   55.9135 N.am    1  ZINC000807524472   -0.9900
     16 C16       -12.8020   -3.4804   55.2235 C.3     1  ZINC000807524472    0.1200
     17 C17       -13.5961   -2.2007   54.9435 C.3     1  ZINC000807524472   -0.1400
     18 C18       -12.7131   -1.2151   54.1747 C.3     1  ZINC000807524472   -0.1200
     19 C19       -11.4933   -0.8507   55.0239 C.3     1  ZINC000807524472   -0.1400
     20 C20       -10.6783   -2.1107   55.3079 C.3     1  ZINC000807524472    0.1200
     21 C21        -9.7826   -2.0430   58.8854 C.ar    1  ZINC000807524472    0.0200
     22 C22        -9.6703   -1.0408   59.8273 C.ar    1  ZINC000807524472   -0.1800
     23 C23       -10.8071   -0.5382   60.4477 C.ar    1  ZINC000807524472    0.2000
     24 N24       -10.6969    0.4704   61.3954 N.3     1  ZINC000807524472   -0.4800
     25 C25        -9.7711    0.0756   62.4877 C.3     1  ZINC000807524472    0.0400
     26 C26        -9.3675    1.4321   63.1181 C.3     1  ZINC000807524472   -0.1200
     27 C27        -9.2633    2.3663   61.8907 C.3     1  ZINC000807524472   -0.1300
     28 C28       -10.1199    1.6956   60.8008 C.3     1  ZINC000807524472    0.0400
     29 H29       -18.6554   -2.1187   60.2468 H       1  ZINC000807524472    0.0600
     30 H30       -17.8594   -3.5037   59.4618 H       1  ZINC000807524472    0.0700
     31 H31       -18.6080   -3.6989   61.0647 H       1  ZINC000807524472    0.0700
     32 H32       -16.1411   -3.5295   61.2493 H       1  ZINC000807524472    0.0500
     33 H33       -16.1884   -1.9493   60.4313 H       1  ZINC000807524472    0.0500
     34 H34       -16.1310   -1.4342   64.1205 H       1  ZINC000807524472    0.0600
     35 H35       -15.2735   -2.7049   63.2159 H       1  ZINC000807524472    0.0700
     36 H36       -15.5839   -0.0147   61.9107 H       1  ZINC000807524472    0.0900
     37 H37       -14.4025   -0.1675   63.2334 H       1  ZINC000807524472    0.0800
     38 H38       -13.1295   -2.4855   58.9022 H       1  ZINC000807524472    0.1600
     39 H39       -12.5686   -3.9789   54.2827 H       1  ZINC000807524472    0.0800
     40 H40       -13.3912   -4.1452   55.8552 H       1  ZINC000807524472    0.0900
     41 H41       -14.4764   -2.4417   54.3477 H       1  ZINC000807524472    0.0800
     42 H42       -13.9065   -1.7514   55.8869 H       1  ZINC000807524472    0.0700
     43 H43       -12.3827   -1.6743   53.2428 H       1  ZINC000807524472    0.0700
     44 H44       -13.2836   -0.3133   53.9526 H       1  ZINC000807524472    0.0700
     45 H45       -10.8769   -0.1309   54.4853 H       1  ZINC000807524472    0.0800
     46 H46       -11.8235   -0.4142   55.9665 H       1  ZINC000807524472    0.0700
     47 H47        -9.8648   -1.8730   55.9932 H       1  ZINC000807524472    0.0900
     48 H48       -10.2709   -2.5003   54.3751 H       1  ZINC000807524472    0.0800
     49 H49        -8.8961   -2.4273   58.4027 H       1  ZINC000807524472    0.1500
     50 H50        -8.6980   -0.6438   60.0793 H       1  ZINC000807524472    0.1400
     51 H51       -10.2829   -0.5511   63.2182 H       1  ZINC000807524472    0.0900
     52 H52        -8.8972   -0.4366   62.0849 H       1  ZINC000807524472    0.0500
     53 H53       -10.1378    1.7825   63.8052 H       1  ZINC000807524472    0.0800
     54 H54        -8.4055    1.3513   63.6242 H       1  ZINC000807524472    0.0800
     55 H55        -9.6609    3.3524   62.1309 H       1  ZINC000807524472    0.0800
     56 H56        -8.2270    2.4452   61.5623 H       1  ZINC000807524472    0.0700
     57 H57        -9.4957    1.4351   59.9460 H       1  ZINC000807524472    0.0500
     58 H58       -10.9184    2.3689   60.4895 H       1  ZINC000807524472    0.0900
@<TRIPOS>BOND
     1     1     2    1
     2     1    29    1
     3     1    30    1
     4     1    31    1
     5     2     3    1
     6     2    32    1
     7     2    33    1
     8     3     4    1
     9     4     5    1
    10     4    34    1
    11     4    35    1
    12     5     6    1
    13     5    36    1
    14     5    37    1
    15     6     7    1
    16     7     8    2
    17     7     9    1
    18     9    23   ar
    19     9    10   ar
    20    10    11   ar
    21    10    38    1
    22    11    12    1
    23    11    21   ar
    24    12    13    2
    25    12    14    2
    26    12    15   am
    27    15    20    1
    28    15    16    1
    29    16    17    1
    30    16    39    1
    31    16    40    1
    32    17    18    1
    33    17    41    1
    34    17    42    1
    35    18    19    1
    36    18    43    1
    37    18    44    1
    38    19    20    1
    39    19    45    1
    40    19    46    1
    41    20    47    1
    42    20    48    1
    43    21    22   ar
    44    21    49    1
    45    22    23   ar
    46    22    50    1
    47    23    24    1
    48    24    28    1
    49    24    25    1
    50    25    26    1
    51    25    51    1
    52    25    52    1
    53    26    27    1
    54    26    53    1
    55    26    54    1
    56    27    28    1
    57    27    55    1
    58    27    56    1
    59    28    57    1
    60    28    58    1
@<TRIPOS>SUBSTRUCTURE
     1 ZINC000807524472        1 TEMP              0 ****  ****    0 ROOT


##########                                Name:    ZINC000489403631
##########                DOCK_Rotatable_Bonds:                   7
##########                         Heavy_Atoms:                  28
##########                    Molecular_Weight:             381.391
##########                DOCK_Rotatable_Bonds:                   7
##########                       Formal_Charge:          -0.0300003
##########                     HBond_Acceptors:                   9
##########                        HBond_Donors:                   1
##########                         Heavy_Atoms:                  28
##########                          Grid_Score:          -31.015402
##########                     Grid_vdw_energy:          -31.992474
##########                      Grid_es_energy:            0.977071
##########           Internal_energy_repulsive:           13.044238

@<TRIPOS>MOLECULE
ZINC000489403631
 47 49 1 0 0
SMALL
USER_CHARGES


@<TRIPOS>ATOM
      1 C1         -3.0770    4.1384   52.7822 C.3     1  ZINC000489403631   -0.1100
      2 C2         -3.0322    3.4719   51.4314 C.ar    1  ZINC000489403631   -0.0800
      3 C3         -1.8185    3.1222   50.8742 C.ar    1  ZINC000489403631   -0.0900
      4 C4         -1.7774    2.5080   49.6293 C.ar    1  ZINC000489403631    0.1200
      5 N5         -0.5461    2.1525   49.0636 N.am    1  ZINC000489403631   -0.6600
      6 C6          0.1652    3.0636   48.3706 C.2     1  ZINC000489403631    0.5100
      7 O7         -0.2607    4.1914   48.2365 O.2     1  ZINC000489403631   -0.4600
      8 C8          1.4899    2.6812   47.7620 C.3     1  ZINC000489403631    0.1700
      9 C9          1.2624    2.1180   46.3578 C.3     1  ZINC000489403631   -0.1700
     10 C10         2.3877    3.9171   47.6766 C.3     1  ZINC000489403631   -0.1700
     11 N11         2.1357    1.6653   48.5970 N.pl3   1  ZINC000489403631   -0.3400
     12 C12         1.9278    0.3336   48.5305 C.2     1  ZINC000489403631    0.1500
     13 C13         2.7113   -0.2534   49.4647 C.2     1  ZINC000489403631   -0.1900
     14 N14         2.8006   -1.7051   49.7390 N.pl3   1  ZINC000489403631    0.0700
     15 O15         2.0629   -2.4812   49.1585 O.2     1  ZINC000489403631   -0.1700
     16 O16         3.6120   -2.1237   50.5453 O.2     1  ZINC000489403631   -0.1600
     17 C17         3.4223    0.7542   50.1248 C.2     1  ZINC000489403631    0.1000
     18 N18         3.0826    1.9042   49.6013 N.2     1  ZINC000489403631   -0.2200
     19 C19        -2.9571    2.2461   48.9458 C.ar    1  ZINC000489403631   -0.1100
     20 C20        -4.1706    2.5964   49.5042 C.ar    1  ZINC000489403631   -0.1700
     21 C21        -4.2114    3.2047   50.7502 C.ar    1  ZINC000489403631    0.1000
     22 O22        -5.4064    3.5494   51.2995 O.3     1  ZINC000489403631   -0.2500
     23 C23        -6.2927    2.5579   51.5702 C.ar    1  ZINC000489403631    0.1400
     24 C24        -5.8853    1.2264   51.6087 C.ar    1  ZINC000489403631   -0.2000
     25 C25        -6.8169    0.2477   51.8874 C.ar    1  ZINC000489403631    0.1200
     26 N26        -8.0785    0.5603   52.1157 N.ar    1  ZINC000489403631   -0.4900
     27 C27        -8.5028    1.8096   52.0882 C.ar    1  ZINC000489403631    0.1200
     28 C28        -7.6319    2.8462   51.8225 C.ar    1  ZINC000489403631   -0.1800
     29 H29        -3.1405    3.3780   53.5606 H       1  ZINC000489403631    0.0700
     30 H30        -2.1729    4.7303   52.9254 H       1  ZINC000489403631    0.0700
     31 H31        -3.9498    4.7889   52.8377 H       1  ZINC000489403631    0.0700
     32 H32        -0.9011    3.3266   51.4062 H       1  ZINC000489403631    0.1500
     33 H33        -0.2055    1.2506   49.1708 H       1  ZINC000489403631    0.4100
     34 H34         0.7818    2.8738   45.7366 H       1  ZINC000489403631    0.1000
     35 H35         2.2204    1.8414   45.9177 H       1  ZINC000489403631    0.0900
     36 H36         0.6228    1.2374   46.4187 H       1  ZINC000489403631    0.0800
     37 H37         2.5497    4.3184   48.6770 H       1  ZINC000489403631    0.0800
     38 H38         3.3457    3.6405   47.2365 H       1  ZINC000489403631    0.0900
     39 H39         1.9071    4.6730   47.0554 H       1  ZINC000489403631    0.0900
     40 H40         1.2562   -0.1730   47.8532 H       1  ZINC000489403631    0.2000
     41 H41         4.1327    0.6078   50.9248 H       1  ZINC000489403631    0.2100
     42 H42        -2.9258    1.7688   47.9775 H       1  ZINC000489403631    0.1300
     43 H43        -5.0885    2.3926   48.9726 H       1  ZINC000489403631    0.1300
     44 H44        -4.8544    0.9638   51.4225 H       1  ZINC000489403631    0.1400
     45 H45        -6.5098   -0.7873   51.9189 H       1  ZINC000489403631    0.1600
     46 H46        -9.5438    2.0236   52.2801 H       1  ZINC000489403631    0.1700
     47 H47        -7.9855    3.8665   51.8017 H       1  ZINC000489403631    0.1500
@<TRIPOS>BOND
     1     1     2    1
     2     1    29    1
     3     1    30    1
     4     1    31    1
     5     2    21   ar
     6     2     3   ar
     7     3     4   ar
     8     3    32    1
     9     4     5    1
    10     4    19   ar
    11     5     6   am
    12     5    33    1
    13     6     7    2
    14     6     8    1
    15     8     9    1
    16     8    10    1
    17     8    11    1
    18     9    34    1
    19     9    35    1
    20     9    36    1
    21    10    37    1
    22    10    38    1
    23    10    39    1
    24    11    18    1
    25    11    12    1
    26    12    13    2
    27    12    40    1
    28    13    14    1
    29    13    17    1
    30    14    15    2
    31    14    16    2
    32    17    18    2
    33    17    41    1
    34    19    20   ar
    35    19    42    1
    36    20    21   ar
    37    20    43    1
    38    21    22    1
    39    22    23    1
    40    23    28   ar
    41    23    24   ar
    42    24    25   ar
    43    24    44    1
    44    25    26   ar
    45    25    45    1
    46    26    27   ar
    47    27    28   ar
    48    27    46    1
    49    28    47    1
@<TRIPOS>SUBSTRUCTURE
     1 ZINC000489403631        1 TEMP              0 ****  ****    0 ROOT


##########                                Name:    ZINC000481838178
##########                DOCK_Rotatable_Bonds:                   6
##########                         Heavy_Atoms:                  29
##########                    Molecular_Weight:             408.524
##########                DOCK_Rotatable_Bonds:                   6
##########                       Formal_Charge:         -0.00999962
##########                     HBond_Acceptors:                   7
##########                        HBond_Donors:                   0
##########                         Heavy_Atoms:                  29
##########                          Grid_Score:          -31.008307
##########                     Grid_vdw_energy:          -30.409876
##########                      Grid_es_energy:           -0.598430
##########           Internal_energy_repulsive:            8.298868

@<TRIPOS>MOLECULE
ZINC000481838178
 53 57 1 0 0
SMALL
USER_CHARGES


@<TRIPOS>ATOM
      1 O1         -2.9478    2.1492   48.5688 O.2     1  ZINC000481838178   -0.5200
      2 C2         -2.6982    2.7646   49.5837 C.2     1  ZINC000481838178    0.5500
      3 C3         -1.3370    3.3824   49.7748 C.3     1  ZINC000481838178   -0.1500
      4 S4         -0.1220    2.0789   50.0921 S.3     1  ZINC000481838178    0.1000
      5 C5          0.5673    1.9040   48.4801 C.2     1  ZINC000481838178    0.1600
      6 N6          0.1007    2.4330   47.3714 N.2     1  ZINC000481838178   -0.2800
      7 N7          0.8443    2.1055   46.3760 N.2     1  ZINC000481838178   -0.2500
      8 C8          1.8359    1.3447   46.7861 C.2     1  ZINC000481838178    0.2700
      9 C9          2.8992    0.7669   45.9502 C.2     1  ZINC000481838178    0.0300
     10 C10         3.2450    1.1782   44.6976 C.2     1  ZINC000481838178   -0.1300
     11 C11         4.3042    0.3506   44.2775 C.2     1  ZINC000481838178   -0.2100
     12 C12         4.5517   -0.5153   45.2804 C.2     1  ZINC000481838178   -0.0100
     13 O13         3.7055   -0.2576   46.2914 O.3     1  ZINC000481838178   -0.1700
     14 N14         1.6923    1.1966   48.1502 N.pl3   1  ZINC000481838178   -0.4100
     15 C15         2.5194    0.4675   49.0155 C.ar    1  ZINC000481838178    0.1000
     16 C16         2.2665   -0.8771   49.2510 C.ar    1  ZINC000481838178   -0.0800
     17 C17         3.0833   -1.5930   50.1044 C.ar    1  ZINC000481838178   -0.1100
     18 C18         4.1522   -0.9717   50.7237 C.ar    1  ZINC000481838178   -0.1000
     19 C19         4.4066    0.3675   50.4912 C.ar    1  ZINC000481838178   -0.1100
     20 C20         3.5967    1.0872   49.6344 C.ar    1  ZINC000481838178   -0.0900
     21 N21        -3.6399    2.9007   50.5383 N.am    1  ZINC000481838178   -0.6200
     22 C22        -3.4802    3.6348   51.8220 C.3     1  ZINC000481838178    0.1000
     23 C23        -4.9178    4.0311   52.1787 C.3     1  ZINC000481838178   -0.1100
     24 H24        -5.2641    4.8519   51.5507 H       1  ZINC000481838178    0.0900
     25 C25        -5.1906    4.3170   53.6434 C.3     1  ZINC000481838178   -0.1100
     26 C26        -6.7007    4.5733   53.7800 C.3     1  ZINC000481838178   -0.1200
     27 C27        -7.5205    3.3885   53.2793 C.3     1  ZINC000481838178   -0.1200
     28 C28        -7.1350    3.0002   51.8417 C.3     1  ZINC000481838178   -0.1000
     29 C29        -5.6534    2.7031   51.8269 C.3     1  ZINC000481838178   -0.1100
     30 H30        -5.4159    1.9535   52.5819 H       1  ZINC000481838178    0.0900
     31 C31        -5.0168    2.3491   50.4864 C.3     1  ZINC000481838178    0.1200
     32 H32        -1.0564    3.9292   48.8744 H       1  ZINC000481838178    0.1300
     33 H33        -1.3645    4.0675   50.6221 H       1  ZINC000481838178    0.1300
     34 H34         2.7938    1.9827   44.1359 H       1  ZINC000481838178    0.1600
     35 H35         4.8205    0.4003   43.3303 H       1  ZINC000481838178    0.1600
     36 H36         5.3083   -1.2860   45.2739 H       1  ZINC000481838178    0.2100
     37 H37         1.4317   -1.3629   48.7677 H       1  ZINC000481838178    0.1300
     38 H38         2.8869   -2.6389   50.2881 H       1  ZINC000481838178    0.1400
     39 H39         4.7893   -1.5333   51.3908 H       1  ZINC000481838178    0.1300
     40 H40         5.2419    0.8501   50.9768 H       1  ZINC000481838178    0.1400
     41 H41         3.7960    2.1330   49.4532 H       1  ZINC000481838178    0.1300
     42 H42        -3.0590    2.9837   52.5880 H       1  ZINC000481838178    0.0800
     43 H43        -2.8597    4.5204   51.6843 H       1  ZINC000481838178    0.0800
     44 H44        -4.9032    3.4579   54.2495 H       1  ZINC000481838178    0.0700
     45 H45        -4.6338    5.1991   53.9598 H       1  ZINC000481838178    0.0700
     46 H46        -6.9376    4.7519   54.8289 H       1  ZINC000481838178    0.0600
     47 H47        -6.9649    5.4585   53.2014 H       1  ZINC000481838178    0.0600
     48 H48        -7.3505    2.5353   53.9361 H       1  ZINC000481838178    0.0600
     49 H49        -8.5781    3.6511   53.3056 H       1  ZINC000481838178    0.0700
     50 H50        -7.6941    2.1169   51.5328 H       1  ZINC000481838178    0.0700
     51 H51        -7.3434    3.8286   51.1646 H       1  ZINC000481838178    0.0700
     52 H52        -5.5837    2.7971   49.6704 H       1  ZINC000481838178    0.0700
     53 H53        -4.9722    1.2668   50.3649 H       1  ZINC000481838178    0.0700
@<TRIPOS>BOND
     1     1     2    2
     2     2     3    1
     3     2    21   am
     4     3     4    1
     5     3    32    1
     6     3    33    1
     7     4     5    1
     8     5    14    1
     9     5     6    2
    10     6     7    1
    11     7     8    2
    12     8     9    1
    13     8    14    1
    14     9    13    1
    15     9    10    2
    16    10    11    1
    17    10    34    1
    18    11    12    2
    19    11    35    1
    20    12    13    1
    21    12    36    1
    22    14    15    1
    23    15    20   ar
    24    15    16   ar
    25    16    17   ar
    26    16    37    1
    27    17    18   ar
    28    17    38    1
    29    18    19   ar
    30    18    39    1
    31    19    20   ar
    32    19    40    1
    33    20    41    1
    34    21    31    1
    35    21    22    1
    36    22    23    1
    37    22    42    1
    38    22    43    1
    39    23    24    1
    40    23    29    1
    41    23    25    1
    42    25    26    1
    43    25    44    1
    44    25    45    1
    45    26    27    1
    46    26    46    1
    47    26    47    1
    48    27    28    1
    49    27    48    1
    50    27    49    1
    51    28    29    1
    52    28    50    1
    53    28    51    1
    54    29    30    1
    55    29    31    1
    56    31    52    1
    57    31    53    1
@<TRIPOS>SUBSTRUCTURE
     1 ZINC000481838178        1 TEMP              0 ****  ****    0 ROOT


##########                                Name:    ZINC001041713551
##########                DOCK_Rotatable_Bonds:                  10
##########                         Heavy_Atoms:                  22
##########                    Molecular_Weight:             330.448
##########                DOCK_Rotatable_Bonds:                  10
##########                       Formal_Charge:          -0.0100006
##########                     HBond_Acceptors:                   7
##########                        HBond_Donors:                   2
##########                         Heavy_Atoms:                  22
##########                          Grid_Score:          -30.988403
##########                     Grid_vdw_energy:          -30.796747
##########                      Grid_es_energy:           -0.191656
##########           Internal_energy_repulsive:            5.560222

@<TRIPOS>MOLECULE
ZINC001041713551
 48 49 1 0 0
SMALL
USER_CHARGES


@<TRIPOS>ATOM
      1 C1          2.6180   -2.1985   50.0482 C.3     1  ZINC001041713551   -0.1500
      2 C2          2.5928   -0.7093   49.6979 C.3     1  ZINC001041713551   -0.1100
      3 C3          4.0167   -0.2288   49.4106 C.3     1  ZINC001041713551   -0.1000
      4 S4          3.9740    1.5050   48.8788 S.3     1  ZINC001041713551   -0.1800
      5 C5          3.7189    1.3763   47.0875 C.3     1  ZINC001041713551   -0.1300
      6 C6          2.2475    1.2251   46.7992 C.2     1  ZINC001041713551    0.5300
      7 O7          1.8531    0.2928   46.1313 O.2     1  ZINC001041713551   -0.5100
      8 N8          1.3699    2.1261   47.2835 N.am    1  ZINC001041713551   -0.7300
      9 C9         -0.0608    1.9782   47.0046 C.3     1  ZINC001041713551    0.1000
     10 C10        -0.8637    2.8204   47.9980 C.3     1  ZINC001041713551    0.0900
     11 O11        -0.8680    4.2119   47.6728 O.3     1  ZINC001041713551   -0.5200
     12 C12        -2.2593    2.2497   48.3084 C.3     1  ZINC001041713551    0.0900
     13 N13        -1.9807    2.6024   49.7141 N.am    1  ZINC001041713551   -0.6400
     14 C14        -2.7465    2.8798   50.7880 C.2     1  ZINC001041713551    0.5500
     15 O15        -2.2267    3.1456   51.8510 O.2     1  ZINC001041713551   -0.5100
     16 C16        -4.2485    2.8597   50.6677 C.3     1  ZINC001041713551    0.0800
     17 H17        -4.5497    3.4169   49.7807 H       1  ZINC001041713551    0.0800
     18 C18        -4.8688    3.5040   51.9102 C.3     1  ZINC001041713551   -0.1500
     19 C19        -6.3952    3.4257   51.8084 C.3     1  ZINC001041713551   -0.1200
     20 C20        -6.8105    1.9605   51.6446 C.3     1  ZINC001041713551   -0.1600
     21 C21        -6.1152    1.3758   50.4125 C.3     1  ZINC001041713551    0.0600
     22 O22        -4.6998    1.5083   50.5577 O.3     1  ZINC001041713551   -0.3600
     23 C23        -0.5268    2.5293   49.4717 C.3     1  ZINC001041713551    0.1200
     24 H24         3.2389   -2.3537   50.9305 H       1  ZINC001041713551    0.0600
     25 H25         1.6036   -2.5407   50.2529 H       1  ZINC001041713551    0.0600
     26 H26         3.0295   -2.7618   49.2107 H       1  ZINC001041713551    0.0600
     27 H27         1.9720   -0.5541   48.8155 H       1  ZINC001041713551    0.0700
     28 H28         2.1813   -0.1459   50.5354 H       1  ZINC001041713551    0.0700
     29 H29         4.6193   -0.3169   50.3146 H       1  ZINC001041713551    0.0800
     30 H30         4.4541   -0.8402   48.6213 H       1  ZINC001041713551    0.0800
     31 H31         4.0937    2.2772   46.6015 H       1  ZINC001041713551    0.1100
     32 H32         4.2552    0.5076   46.7055 H       1  ZINC001041713551    0.1100
     33 H33         1.6855    2.8725   47.8166 H       1  ZINC001041713551    0.4000
     34 H34        -0.2698    2.3159   45.9896 H       1  ZINC001041713551    0.0900
     35 H35        -0.3439    0.9304   47.1045 H       1  ZINC001041713551    0.0900
     36 H36        -1.4385    4.4394   46.9259 H       1  ZINC001041713551    0.3800
     37 H37        -3.0758    2.8203   47.8658 H       1  ZINC001041713551    0.0900
     38 H38        -2.3444    1.1772   48.1332 H       1  ZINC001041713551    0.1000
     39 H39        -4.5355    2.9720   52.8014 H       1  ZINC001041713551    0.0800
     40 H40        -4.5609    4.5479   51.9715 H       1  ZINC001041713551    0.0800
     41 H41        -6.8425    3.8323   52.7155 H       1  ZINC001041713551    0.0700
     42 H42        -6.7330    3.9991   50.9451 H       1  ZINC001041713551    0.0700
     43 H43        -6.5164    1.3973   52.5304 H       1  ZINC001041713551    0.0700
     44 H44        -7.8912    1.9003   51.5160 H       1  ZINC001041713551    0.0800
     45 H45        -6.3736    0.3212   50.3154 H       1  ZINC001041713551    0.1000
     46 H46        -6.4410    1.9134   49.5219 H       1  ZINC001041713551    0.0500
     47 H47        -0.1029    1.5390   49.6381 H       1  ZINC001041713551    0.1100
     48 H48         0.0401    3.3233   49.9578 H       1  ZINC001041713551    0.1000
@<TRIPOS>BOND
     1     1     2    1
     2     1    24    1
     3     1    25    1
     4     1    26    1
     5     2     3    1
     6     2    27    1
     7     2    28    1
     8     3     4    1
     9     3    29    1
    10     3    30    1
    11     4     5    1
    12     5     6    1
    13     5    31    1
    14     5    32    1
    15     6     7    2
    16     6     8   am
    17     8     9    1
    18     8    33    1
    19     9    10    1
    20     9    34    1
    21     9    35    1
    22    10    23    1
    23    10    11    1
    24    10    12    1
    25    11    36    1
    26    12    13    1
    27    12    37    1
    28    12    38    1
    29    13    14   am
    30    13    23    1
    31    14    15    2
    32    14    16    1
    33    16    17    1
    34    16    22    1
    35    16    18    1
    36    18    19    1
    37    18    39    1
    38    18    40    1
    39    19    20    1
    40    19    41    1
    41    19    42    1
    42    20    21    1
    43    20    43    1
    44    20    44    1
    45    21    22    1
    46    21    45    1
    47    21    46    1
    48    23    47    1
    49    23    48    1
@<TRIPOS>SUBSTRUCTURE
     1 ZINC001041713551        1 TEMP              0 ****  ****    0 ROOT


##########                                Name:    ZINC000509132103
##########                DOCK_Rotatable_Bonds:                   7
##########                         Heavy_Atoms:                  29
##########                    Molecular_Weight:              405.52
##########                DOCK_Rotatable_Bonds:                   7
##########                       Formal_Charge:          -0.0499998
##########                     HBond_Acceptors:                   6
##########                        HBond_Donors:                   0
##########                         Heavy_Atoms:                  29
##########                          Grid_Score:          -30.983337
##########                     Grid_vdw_energy:          -29.626949
##########                      Grid_es_energy:           -1.356389
##########           Internal_energy_repulsive:           16.357883

@<TRIPOS>MOLECULE
ZINC000509132103
 52 55 1 0 0
SMALL
USER_CHARGES


@<TRIPOS>ATOM
      1 C1        -10.5154   -0.8538   52.8419 C.3     1  ZINC000509132103    0.0300
      2 O2        -10.2597    0.5116   53.1774 O.3     1  ZINC000509132103   -0.3000
      3 C3         -9.0516    1.0172   52.8222 C.ar    1  ZINC000509132103    0.2700
      4 C4         -8.1268    0.2165   52.1573 C.ar    1  ZINC000509132103   -0.1300
      5 C5         -6.9065    0.7801   51.8160 C.ar    1  ZINC000509132103   -0.0700
      6 C6         -6.6825    2.1057   52.1577 C.ar    1  ZINC000509132103    0.0500
      7 C7         -5.3724    2.7632   51.8081 C.3     1  ZINC000509132103   -0.0500
      8 S8         -4.8456    2.2224   50.1586 S.3     1  ZINC000509132103   -0.1500
      9 C9         -3.2225    3.0102   49.9699 C.3     1  ZINC000509132103   -0.1300
     10 C10        -2.5378    2.4623   48.7443 C.2     1  ZINC000509132103    0.5400
     11 O11        -3.1574    1.7767   47.9588 O.2     1  ZINC000509132103   -0.5100
     12 N12        -1.2367    2.7342   48.5211 N.am    1  ZINC000509132103   -0.6100
     13 C13        -0.5413    2.2162   47.3380 C.3     1  ZINC000509132103    0.1500
     14 C14         0.8106    1.6804   47.7377 C.ar    1  ZINC000509132103   -0.1000
     15 C15         1.5126    0.9320   46.8032 C.ar    1  ZINC000509132103   -0.1100
     16 C16         2.7592    0.4235   47.1066 C.ar    1  ZINC000509132103   -0.1200
     17 C17         3.3129    0.6631   48.3502 C.ar    1  ZINC000509132103   -0.1200
     18 C18         2.6143    1.4035   49.2812 C.ar    1  ZINC000509132103   -0.1100
     19 C19         1.3566    1.9115   48.9807 C.ar    1  ZINC000509132103   -0.0600
     20 C20         0.6419    2.6874   50.0556 C.3     1  ZINC000509132103   -0.0200
     21 H21         0.1967    1.9901   50.7652 H       1  ZINC000509132103    0.1000
     22 C22         1.6335    3.5633   50.7772 C.ar    1  ZINC000509132103   -0.0800
     23 C23         2.3787    4.4897   50.0720 C.ar    1  ZINC000509132103   -0.1100
     24 C24         3.2883    5.2931   50.7340 C.ar    1  ZINC000509132103   -0.1200
     25 C25         3.4524    5.1703   52.1010 C.ar    1  ZINC000509132103   -0.1200
     26 C26         2.7065    4.2445   52.8062 C.ar    1  ZINC000509132103   -0.1200
     27 C27         1.7938    3.4441   52.1450 C.ar    1  ZINC000509132103   -0.1100
     28 C28        -0.4583    3.5682   49.4518 C.3     1  ZINC000509132103    0.1200
     29 N29        -7.6164    2.7903   52.7882 N.ar    1  ZINC000509132103   -0.1900
     30 N30        -8.7495    2.2753   53.1015 N.ar    1  ZINC000509132103   -0.3000
     31 H31        -9.7768   -1.4917   53.3273 H       1  ZINC000509132103    0.0600
     32 H32       -11.5136   -1.1305   53.1815 H       1  ZINC000509132103    0.1000
     33 H33       -10.4511   -0.9806   51.7612 H       1  ZINC000509132103    0.0600
     34 H34        -8.3526   -0.8115   51.9152 H       1  ZINC000509132103    0.1600
     35 H35        -6.1529    0.2040   51.2998 H       1  ZINC000509132103    0.1600
     36 H36        -5.4966    3.8461   51.8128 H       1  ZINC000509132103    0.1100
     37 H37        -4.6170    2.4809   52.5414 H       1  ZINC000509132103    0.1000
     38 H38        -3.3517    4.0872   49.8631 H       1  ZINC000509132103    0.1100
     39 H39        -2.6134    2.8027   50.8498 H       1  ZINC000509132103    0.1100
     40 H40        -1.1313    1.4155   46.8921 H       1  ZINC000509132103    0.1000
     41 H41        -0.4132    3.0190   46.6120 H       1  ZINC000509132103    0.0900
     42 H42         1.0799    0.7458   45.8314 H       1  ZINC000509132103    0.1200
     43 H43         3.3000   -0.1588   46.3753 H       1  ZINC000509132103    0.1300
     44 H44         4.2896    0.2711   48.5925 H       1  ZINC000509132103    0.1200
     45 H45         3.0488    1.5897   50.2522 H       1  ZINC000509132103    0.1200
     46 H46         2.2506    4.5856   49.0039 H       1  ZINC000509132103    0.1200
     47 H47         3.8711    6.0164   50.1830 H       1  ZINC000509132103    0.1200
     48 H48         4.1635    5.7975   52.6181 H       1  ZINC000509132103    0.1200
     49 H49         2.8349    4.1483   53.8743 H       1  ZINC000509132103    0.1200
     50 H50         1.2111    2.7207   52.6960 H       1  ZINC000509132103    0.1200
     51 H51        -0.0088    4.4051   48.9174 H       1  ZINC000509132103    0.0800
     52 H52        -1.1078    3.9415   50.2435 H       1  ZINC000509132103    0.1000
@<TRIPOS>BOND
     1     1     2    1
     2     1    31    1
     3     1    32    1
     4     1    33    1
     5     2     3    1
     6     3    30   ar
     7     3     4   ar
     8     4     5   ar
     9     4    34    1
    10     5     6   ar
    11     5    35    1
    12     6     7    1
    13     6    29   ar
    14     7     8    1
    15     7    36    1
    16     7    37    1
    17     8     9    1
    18     9    10    1
    19     9    38    1
    20     9    39    1
    21    10    11    2
    22    10    12   am
    23    12    28    1
    24    12    13    1
    25    13    14    1
    26    13    40    1
    27    13    41    1
    28    14    19   ar
    29    14    15   ar
    30    15    16   ar
    31    15    42    1
    32    16    17   ar
    33    16    43    1
    34    17    18   ar
    35    17    44    1
    36    18    19   ar
    37    18    45    1
    38    19    20    1
    39    20    21    1
    40    20    22    1
    41    20    28    1
    42    22    27   ar
    43    22    23   ar
    44    23    24   ar
    45    23    46    1
    46    24    25   ar
    47    24    47    1
    48    25    26   ar
    49    25    48    1
    50    26    27   ar
    51    26    49    1
    52    27    50    1
    53    28    51    1
    54    28    52    1
    55    29    30   ar
@<TRIPOS>SUBSTRUCTURE
     1 ZINC000509132103        1 TEMP              0 ****  ****    0 ROOT


##########                                Name:    ZINC000501032137
##########                DOCK_Rotatable_Bonds:                  10
##########                         Heavy_Atoms:                  25
##########                    Molecular_Weight:             407.307
##########                DOCK_Rotatable_Bonds:                  10
##########                       Formal_Charge:           0.0099998
##########                     HBond_Acceptors:                   5
##########                        HBond_Donors:                   1
##########                         Heavy_Atoms:                  25
##########                          Grid_Score:          -30.981712
##########                     Grid_vdw_energy:          -31.315044
##########                      Grid_es_energy:            0.333333
##########           Internal_energy_repulsive:            9.787081

@<TRIPOS>MOLECULE
ZINC000501032137
 48 50 1 0 0
SMALL
USER_CHARGES


@<TRIPOS>ATOM
      1 C1         -1.0899    3.2943   57.4629 C.3     1  ZINC000501032137   -0.1500
      2 C2         -1.1483    2.8977   55.9863 C.3     1  ZINC000501032137   -0.1200
      3 C3         -1.9411    3.9487   55.2068 C.3     1  ZINC000501032137    0.0600
      4 O4         -2.6168    3.3222   54.1146 O.3     1  ZINC000501032137   -0.3800
      5 C5         -3.1318    4.2391   53.1470 C.3     1  ZINC000501032137    0.0500
      6 C6         -3.6932    3.4609   51.9552 C.3     1  ZINC000501032137    0.1600
      7 H7         -2.9720    2.7060   51.6420 H       1  ZINC000501032137    0.1000
      8 C8         -3.9588    4.4242   50.7966 C.3     1  ZINC000501032137   -0.0900
      9 C9         -2.7658    4.4440   49.8762 C.ar    1  ZINC000501032137   -0.0600
     10 C10        -1.9004    5.5217   49.8899 C.ar    1  ZINC000501032137   -0.0900
     11 C11        -0.8056    5.5405   49.0456 C.ar    1  ZINC000501032137   -0.1100
     12 C12        -0.5761    4.4817   48.1877 C.ar    1  ZINC000501032137   -0.0900
     13 C13        -1.4420    3.4029   48.1737 C.ar    1  ZINC000501032137   -0.0800
     14 Br14       -1.1285    1.9537   46.9998 Br      1  ZINC000501032137   -0.0600
     15 C15        -2.5338    3.3819   49.0224 C.ar    1  ZINC000501032137   -0.0800
     16 N16        -4.9456    2.8080   52.3443 N.am    1  ZINC000501032137   -0.7100
     17 C17        -5.3675    1.7115   51.6840 C.2     1  ZINC000501032137    0.6100
     18 O18        -4.7078    1.2632   50.7660 O.2     1  ZINC000501032137   -0.5200
     19 C19        -6.6286    1.0556   52.0744 C.2     1  ZINC000501032137   -0.0800
     20 C20        -7.6572    1.6244   52.7605 C.2     1  ZINC000501032137    0.0800
     21 C21        -7.7229    3.0429   53.2651 C.3     1  ZINC000501032137   -0.0800
     22 C22        -8.5358    3.3040   54.5348 C.3     1  ZINC000501032137   -0.1700
     23 C23        -7.0074    3.3588   54.5801 C.3     1  ZINC000501032137   -0.1500
     24 O24        -8.6023    0.6814   52.9018 O.3     1  ZINC000501032137   -0.2000
     25 C25        -8.1647   -0.4420   52.3158 C.2     1  ZINC000501032137    0.1800
     26 N26        -6.9859   -0.2307   51.8116 N.2     1  ZINC000501032137   -0.4600
     27 H27        -0.6011    4.2638   57.5596 H       1  ZINC000501032137    0.0600
     28 H28        -2.1020    3.3562   57.8627 H       1  ZINC000501032137    0.0600
     29 H29        -0.5251    2.5456   58.0182 H       1  ZINC000501032137    0.0600
     30 H30        -0.1361    2.8358   55.5865 H       1  ZINC000501032137    0.0700
     31 H31        -1.6370    1.9282   55.8895 H       1  ZINC000501032137    0.0700
     32 H32        -2.6723    4.4154   55.8668 H       1  ZINC000501032137    0.0500
     33 H33        -1.2594    4.7085   54.8247 H       1  ZINC000501032137    0.0500
     34 H34        -3.9252    4.8354   53.5976 H       1  ZINC000501032137    0.0700
     35 H35        -2.3315    4.8965   52.8072 H       1  ZINC000501032137    0.0600
     36 H36        -4.8384    4.0941   50.2441 H       1  ZINC000501032137    0.0900
     37 H37        -4.1314    5.4261   51.1894 H       1  ZINC000501032137    0.0800
     38 H38        -2.0796    6.3495   50.5600 H       1  ZINC000501032137    0.1200
     39 H39        -0.1298    6.3829   49.0565 H       1  ZINC000501032137    0.1300
     40 H40         0.2790    4.4967   47.5281 H       1  ZINC000501032137    0.1300
     41 H41        -3.2099    2.5397   49.0120 H       1  ZINC000501032137    0.1200
     42 H42        -5.4711    3.1649   53.0774 H       1  ZINC000501032137    0.4100
     43 H43        -7.7274    3.8156   52.4964 H       1  ZINC000501032137    0.1500
     44 H44        -9.0754    4.2488   54.6013 H       1  ZINC000501032137    0.1100
     45 H45        -9.0229    2.4500   55.0051 H       1  ZINC000501032137    0.1000
     46 H46        -6.4891    2.5406   55.0803 H       1  ZINC000501032137    0.1000
     47 H47        -6.5416    4.3395   54.6767 H       1  ZINC000501032137    0.1100
     48 H48        -8.7076   -1.3744   52.2672 H       1  ZINC000501032137    0.2500
@<TRIPOS>BOND
     1     1     2    1
     2     1    27    1
     3     1    28    1
     4     1    29    1
     5     2     3    1
     6     2    30    1
     7     2    31    1
     8     3     4    1
     9     3    32    1
    10     3    33    1
    11     4     5    1
    12     5     6    1
    13     5    34    1
    14     5    35    1
    15     6     7    1
    16     6     8    1
    17     6    16    1
    18     8     9    1
    19     8    36    1
    20     8    37    1
    21     9    15   ar
    22     9    10   ar
    23    10    11   ar
    24    10    38    1
    25    11    12   ar
    26    11    39    1
    27    12    13   ar
    28    12    40    1
    29    13    14    1
    30    13    15   ar
    31    15    41    1
    32    16    17   am
    33    16    42    1
    34    17    18    2
    35    17    19    1
    36    19    26    1
    37    19    20    2
    38    20    21    1
    39    20    24    1
    40    21    23    1
    41    21    22    1
    42    21    43    1
    43    22    23    1
    44    22    44    1
    45    22    45    1
    46    23    46    1
    47    23    47    1
    48    24    25    1
    49    25    26    2
    50    25    48    1
@<TRIPOS>SUBSTRUCTURE
     1 ZINC000501032137        1 TEMP              0 ****  ****    0 ROOT


##########                                Name:    ZINC000967287417
##########                DOCK_Rotatable_Bonds:                   7
##########                         Heavy_Atoms:                  25
##########                    Molecular_Weight:             347.414
##########                DOCK_Rotatable_Bonds:                   7
##########                       Formal_Charge:          -0.0200002
##########                     HBond_Acceptors:                   7
##########                        HBond_Donors:                   1
##########                         Heavy_Atoms:                  25
##########                          Grid_Score:          -30.971802
##########                     Grid_vdw_energy:          -29.992958
##########                      Grid_es_energy:           -0.978844
##########           Internal_energy_repulsive:           10.060625

@<TRIPOS>MOLECULE
ZINC000967287417
 50 52 1 0 0
SMALL
USER_CHARGES


@<TRIPOS>ATOM
      1 C1        -11.8809    0.6439   40.4743 C.3     1  ZINC000967287417    0.0300
      2 O2        -12.5973   -0.0258   39.4348 O.3     1  ZINC000967287417   -0.3900
      3 C3        -13.5856   -0.9431   39.9080 C.3     1  ZINC000967287417    0.1400
      4 C4        -14.5731   -0.2118   40.7804 C.2     1  ZINC000967287417    0.0100
      5 C5        -15.7299    0.3471   40.3617 C.2     1  ZINC000967287417   -0.1900
      6 C6        -16.3425    0.9209   41.4868 C.2     1  ZINC000967287417   -0.1200
      7 C7        -15.5179    0.6801   42.5482 C.2     1  ZINC000967287417   -0.0700
      8 C8        -15.7532    1.0974   43.9343 C.2     1  ZINC000967287417    0.6100
      9 O9        -16.7646    1.7101   44.2220 O.2     1  ZINC000967287417   -0.5200
     10 N10       -14.8494    0.8024   44.8896 N.am    1  ZINC000967287417   -0.7000
     11 C11       -15.0853    1.2177   46.2745 C.3     1  ZINC000967287417    0.1600
     12 H12       -15.5715    2.1932   46.2841 H       1  ZINC000967287417    0.1000
     13 C13       -15.9838    0.1922   46.9695 C.3     1  ZINC000967287417    0.0400
     14 N14       -15.3204   -1.1179   46.9746 N.3     1  ZINC000967287417   -0.5300
     15 C15       -16.2107   -2.1566   47.5097 C.3     1  ZINC000967287417    0.1300
     16 C16       -16.0786   -3.4076   46.6799 C.2     1  ZINC000967287417    0.0200
     17 N17       -16.8720   -4.4396   46.6931 N.2     1  ZINC000967287417   -0.3500
     18 O18       -16.5079   -5.2912   45.9157 O.3     1  ZINC000967287417    0.1000
     19 C19       -15.3938   -4.9229   45.2677 C.2     1  ZINC000967287417   -0.0300
     20 C20       -14.6500   -5.7200   44.2272 C.3     1  ZINC000967287417   -0.0800
     21 C21       -15.0721   -3.6904   45.7282 C.2     1  ZINC000967287417   -0.2400
     22 C22       -14.0575   -1.0707   47.7224 C.3     1  ZINC000967287417    0.0500
     23 C23       -13.1016   -0.0828   47.0500 C.3     1  ZINC000967287417   -0.1100
     24 C24       -13.7489    1.3053   47.0167 C.3     1  ZINC000967287417   -0.1000
     25 H25       -13.9202    1.6519   48.0358 H       1  ZINC000967287417    0.0900
     26 C26       -12.8224    2.2843   46.2926 C.3     1  ZINC000967287417   -0.1500
     27 O27       -14.4514   -0.0137   42.0994 O.3     1  ZINC000967287417   -0.1600
     28 H28       -11.3670   -0.0914   41.0934 H       1  ZINC000967287417    0.0500
     29 H29       -11.1501    1.3219   40.0333 H       1  ZINC000967287417    0.0900
     30 H30       -12.5791    1.2121   41.0889 H       1  ZINC000967287417    0.0500
     31 H31       -14.1079   -1.3843   39.0591 H       1  ZINC000967287417    0.0900
     32 H32       -13.1029   -1.7306   40.4868 H       1  ZINC000967287417    0.0700
     33 H33       -16.1116    0.3515   39.3514 H       1  ZINC000967287417    0.1600
     34 H34       -17.2835    1.4504   41.5087 H       1  ZINC000967287417    0.1600
     35 H35       -14.0427    0.3151   44.6601 H       1  ZINC000967287417    0.4100
     36 H36       -16.1702    0.5089   47.9957 H       1  ZINC000967287417    0.0500
     37 H37       -16.9309    0.1176   46.4349 H       1  ZINC000967287417    0.0900
     38 H38       -15.9358   -2.3745   48.5417 H       1  ZINC000967287417    0.0600
     39 H39       -17.2418   -1.8048   47.4749 H       1  ZINC000967287417    0.0900
     40 H40       -15.1576   -6.6710   44.0666 H       1  ZINC000967287417    0.0800
     41 H41       -14.6222   -5.1604   43.2922 H       1  ZINC000967287417    0.0900
     42 H42       -13.6321   -5.9048   44.5704 H       1  ZINC000967287417    0.0900
     43 H43       -14.2363   -3.0700   45.4400 H       1  ZINC000967287417    0.1700
     44 H44       -14.2529   -0.7481   48.7451 H       1  ZINC000967287417    0.0400
     45 H45       -13.6055   -2.0625   47.7349 H       1  ZINC000967287417    0.0800
     46 H46       -12.1701   -0.0363   47.6142 H       1  ZINC000967287417    0.0700
     47 H47       -12.8948   -0.4123   46.0318 H       1  ZINC000967287417    0.0700
     48 H48       -12.6535    1.9381   45.2729 H       1  ZINC000967287417    0.0600
     49 H49       -13.2837    3.2716   46.2693 H       1  ZINC000967287417    0.0600
     50 H50       -11.8700    2.3406   46.8196 H       1  ZINC000967287417    0.0600
@<TRIPOS>BOND
     1     1     2    1
     2     1    28    1
     3     1    29    1
     4     1    30    1
     5     2     3    1
     6     3     4    1
     7     3    31    1
     8     3    32    1
     9     4    27    1
    10     4     5    2
    11     5     6    1
    12     5    33    1
    13     6     7    2
    14     6    34    1
    15     7     8    1
    16     7    27    1
    17     8     9    2
    18     8    10   am
    19    10    11    1
    20    10    35    1
    21    11    12    1
    22    11    24    1
    23    11    13    1
    24    13    14    1
    25    13    36    1
    26    13    37    1
    27    14    15    1
    28    14    22    1
    29    15    16    1
    30    15    38    1
    31    15    39    1
    32    16    21    1
    33    16    17    2
    34    17    18    1
    35    18    19    1
    36    19    20    1
    37    19    21    2
    38    20    40    1
    39    20    41    1
    40    20    42    1
    41    21    43    1
    42    22    23    1
    43    22    44    1
    44    22    45    1
    45    23    24    1
    46    23    46    1
    47    23    47    1
    48    24    25    1
    49    24    26    1
    50    26    48    1
    51    26    49    1
    52    26    50    1
@<TRIPOS>SUBSTRUCTURE
     1 ZINC000967287417        1 TEMP              0 ****  ****    0 ROOT


##########                                Name:    ZINC000442864105
##########                DOCK_Rotatable_Bonds:                   7
##########                         Heavy_Atoms:                  30
##########                    Molecular_Weight:              414.39
##########                DOCK_Rotatable_Bonds:                   7
##########                       Formal_Charge:           0.0200001
##########                     HBond_Acceptors:                  10
##########                        HBond_Donors:                   2
##########                         Heavy_Atoms:                  30
##########                          Grid_Score:          -30.971079
##########                     Grid_vdw_energy:          -31.332439
##########                      Grid_es_energy:            0.361361
##########           Internal_energy_repulsive:           17.892080

@<TRIPOS>MOLECULE
ZINC000442864105
 47 50 1 0 0
SMALL
USER_CHARGES


@<TRIPOS>ATOM
      1 C1         -2.1380    1.7583   47.1129 C.3     1  ZINC000442864105    0.0800
      2 N2         -1.9030    2.8701   48.0377 N.pl3   1  ZINC000442864105   -0.4900
      3 C3         -0.9718    3.8590   47.8593 C.2     1  ZINC000442864105    0.0300
      4 C4         -1.0158    4.7195   48.8879 C.2     1  ZINC000442864105   -0.1900
      5 C5         -2.0598    4.2441   49.8004 C.ar    1  ZINC000442864105   -0.1600
      6 C6         -2.5649    4.7045   51.0180 C.ar    1  ZINC000442864105   -0.0200
      7 C7         -3.5694    4.0198   51.6401 C.ar    1  ZINC000442864105   -0.2100
      8 C8         -4.0955    2.8626   51.0679 C.ar    1  ZINC000442864105    0.2400
      9 N9         -5.1236    2.1732   51.7176 N.pl3   1  ZINC000442864105   -0.7400
     10 C10        -6.2792    1.6932   50.9556 C.3     1  ZINC000442864105    0.1100
     11 C11        -7.2734    1.0616   51.8956 C.2     1  ZINC000442864105    0.5100
     12 O12        -7.1970   -0.1211   52.1541 O.2     1  ZINC000442864105   -0.5100
     13 N13        -8.2475    1.8107   52.4492 N.am    1  ZINC000442864105   -0.6600
     14 C14        -9.1710    1.2240   53.3223 C.ar    1  ZINC000442864105    0.1600
     15 C15       -10.1610    0.3875   52.8282 C.ar    1  ZINC000442864105   -0.0700
     16 C16       -11.0717   -0.1907   53.6921 C.ar    1  ZINC000442864105   -0.1600
     17 C17       -12.1464   -1.0993   53.1531 C.3     1  ZINC000442864105    0.5100
     18 F18       -13.2352   -0.3316   52.7260 F       1  ZINC000442864105   -0.1700
     19 F19       -11.6400   -1.8314   52.0739 F       1  ZINC000442864105   -0.1700
     20 F20       -12.5617   -1.9783   54.1591 F       1  ZINC000442864105   -0.1700
     21 C21       -10.9994    0.0618   55.0498 C.ar    1  ZINC000442864105   -0.0600
     22 C22       -10.0166    0.8944   55.5508 C.ar    1  ZINC000442864105   -0.1100
     23 C23        -9.0950    1.4743   54.6921 C.ar    1  ZINC000442864105    0.1500
     24 N24        -8.0968    2.3195   55.1983 N.pl3   1  ZINC000442864105   -0.3300
     25 C25        -7.8795    2.6286   56.4912 C.2     1  ZINC000442864105    0.2800
     26 N26        -6.8576    3.4444   56.5466 N.2     1  ZINC000442864105   -0.5300
     27 C27        -6.3984    3.6781   55.3178 C.2     1  ZINC000442864105    0.2300
     28 N28        -7.1209    3.0073   54.4587 N.2     1  ZINC000442864105   -0.3400
     29 C29        -3.6080    2.3912   49.8612 C.ar    1  ZINC000442864105   -0.2100
     30 C30        -2.5892    3.0803   49.2129 C.ar    1  ZINC000442864105    0.1500
     31 H31        -2.8885    2.0494   46.3780 H       1  ZINC000442864105    0.0700
     32 H32        -1.2081    1.5073   46.6027 H       1  ZINC000442864105    0.0800
     33 H33        -2.4923    0.8910   47.6701 H       1  ZINC000442864105    0.0800
     34 H34        -0.3017    3.9348   47.0157 H       1  ZINC000442864105    0.1700
     35 H35        -0.3985    5.5960   49.0189 H       1  ZINC000442864105    0.1400
     36 H36        -2.1616    5.6001   51.4671 H       1  ZINC000442864105    0.1200
     37 H37        -3.9586    4.3770   52.5820 H       1  ZINC000442864105    0.1200
     38 H38        -5.0718    2.0126   52.6727 H       1  ZINC000442864105    0.4100
     39 H39        -6.7482    2.5314   50.4404 H       1  ZINC000442864105    0.1000
     40 H40        -5.9509    0.9548   50.2242 H       1  ZINC000442864105    0.1000
     41 H41        -8.3086    2.7564   52.2426 H       1  ZINC000442864105    0.4300
     42 H42       -10.2203    0.1882   51.7684 H       1  ZINC000442864105    0.1700
     43 H43       -11.7133   -0.3928   55.7207 H       1  ZINC000442864105    0.1500
     44 H44        -9.9633    1.0896   56.6117 H       1  ZINC000442864105    0.1500
     45 H45        -8.4493    2.2671   57.3345 H       1  ZINC000442864105    0.2300
     46 H46        -5.5618    4.3151   55.0716 H       1  ZINC000442864105    0.2300
     47 H47        -4.0200    1.4942   49.4231 H       1  ZINC000442864105    0.1200
@<TRIPOS>BOND
     1     1     2    1
     2     1    31    1
     3     1    32    1
     4     1    33    1
     5     2    30    1
     6     2     3    1
     7     3     4    2
     8     3    34    1
     9     4     5    1
    10     4    35    1
    11     5    30   ar
    12     5     6   ar
    13     6     7   ar
    14     6    36    1
    15     7     8   ar
    16     7    37    1
    17     8     9    1
    18     8    29   ar
    19     9    10    1
    20     9    38    1
    21    10    11    1
    22    10    39    1
    23    10    40    1
    24    11    12    2
    25    11    13   am
    26    13    14    1
    27    13    41    1
    28    14    23   ar
    29    14    15   ar
    30    15    16   ar
    31    15    42    1
    32    16    17    1
    33    16    21   ar
    34    17    18    1
    35    17    19    1
    36    17    20    1
    37    21    22   ar
    38    21    43    1
    39    22    23   ar
    40    22    44    1
    41    23    24    1
    42    24    28    1
    43    24    25    1
    44    25    26    2
    45    25    45    1
    46    26    27    1
    47    27    28    2
    48    27    46    1
    49    29    30   ar
    50    29    47    1
@<TRIPOS>SUBSTRUCTURE
     1 ZINC000442864105        1 TEMP              0 ****  ****    0 ROOT


##########                                Name:    ZINC000284209281
##########                DOCK_Rotatable_Bonds:                   8
##########                         Heavy_Atoms:                  26
##########                    Molecular_Weight:             353.424
##########                DOCK_Rotatable_Bonds:                   8
##########                       Formal_Charge:          0.00999954
##########                     HBond_Acceptors:                   7
##########                        HBond_Donors:                   1
##########                         Heavy_Atoms:                  26
##########                          Grid_Score:          -30.958633
##########                     Grid_vdw_energy:          -28.161148
##########                      Grid_es_energy:           -2.797485
##########           Internal_energy_repulsive:           12.751191

@<TRIPOS>MOLECULE
ZINC000284209281
 49 51 1 0 0
SMALL
USER_CHARGES


@<TRIPOS>ATOM
      1 O1         -4.1758    5.3639   52.4735 O.2     1  <0>        -0.5100
      2 C2         -4.3068    4.3552   53.1352 C.2     1  <0>         0.5100
      3 N3         -4.3762    3.1545   52.5270 N.am    1  <0>        -0.7000
      4 C4         -4.2997    3.0677   51.0666 C.3     1  <0>         0.1200
      5 C5         -5.0109    1.7984   50.5931 C.3     1  <0>        -0.1000
      6 C6         -6.4044    1.7602   51.1656 C.ar    1  <0>        -0.0400
      7 C7         -7.1815    2.9073   51.2190 C.ar    1  <0>        -0.1700
      8 C8         -8.4549    2.8339   51.7510 C.ar    1  <0>         0.1000
      9 N9         -8.9316    1.6912   52.2045 N.ar    1  <0>        -0.4900
     10 C10        -8.2212    0.5807   52.1696 C.ar    1  <0>         0.1000
     11 C11        -6.9420    0.5761   51.6462 C.ar    1  <0>        -0.1700
     12 C12        -4.3847    4.4437   54.6251 C.2     1  <0>         0.5100
     13 O13        -5.4579    4.6056   55.1680 O.2     1  <0>        -0.5200
     14 N14        -3.2631    4.3438   55.3657 N.am    1  <0>        -0.5800
     15 C15        -3.3181    4.4223   56.8333 C.3     1  <0>         0.0800
     16 C16        -2.5688    3.2181   57.4136 C.3     1  <0>         0.0400
     17 N17        -1.2155    3.1669   56.8446 N.3     1  <0>        -0.5300
     18 C18        -0.4072    2.1308   57.5014 C.3     1  <0>         0.1000
     19 C19        -0.0386    2.5863   58.8898 C.ar    1  <0>         0.1300
     20 C20         0.0789    1.6562   59.9049 C.ar    1  <0>        -0.1500
     21 C21         0.4190    2.0856   61.1788 C.ar    1  <0>        -0.0700
     22 C22         0.6289    3.4404   61.3843 C.ar    1  <0>        -0.1700
     23 C23         0.4932    4.3120   60.3201 C.ar    1  <0>         0.1000
     24 N24         0.1734    3.8673   59.1207 N.ar    1  <0>        -0.4800
     25 C25        -1.2562    2.9600   55.3908 C.3     1  <0>         0.0400
     26 C26        -1.9524    4.1475   54.7280 C.3     1  <0>         0.1100
     27 H27        -4.4768    2.3478   53.0562 H       1  <0>         0.4100
     28 H28        -4.7812    3.9402   50.6250 H       1  <0>         0.0800
     29 H29        -3.2546    3.0349   50.7588 H       1  <0>         0.0800
     30 H30        -5.0653    1.7971   49.5045 H       1  <0>         0.0900
     31 H31        -4.4553    0.9234   50.9303 H       1  <0>         0.0900
     32 H32        -6.7964    3.8464   50.8499 H       1  <0>         0.1400
     33 H33        -9.0665    3.7229   51.7962 H       1  <0>         0.1600
     34 H34        -8.6453   -0.3365   52.5508 H       1  <0>         0.1600
     35 H35        -6.3653   -0.3366   51.6201 H       1  <0>         0.1400
     36 H36        -2.8441    5.3448   57.1687 H       1  <0>         0.0800
     37 H37        -4.3570    4.4005   57.1626 H       1  <0>         0.1400
     38 H38        -2.5043    3.3175   58.4971 H       1  <0>         0.0900
     39 H39        -3.1036    2.3018   57.1633 H       1  <0>         0.0400
     40 H40        -0.9814    1.2064   57.5626 H       1  <0>         0.0900
     41 H41         0.5003    1.9571   56.9230 H       1  <0>         0.0600
     42 H42        -0.0923    0.6081   59.7087 H       1  <0>         0.1400
     43 H43         0.5176    1.3814   61.9917 H       1  <0>         0.1400
     44 H44         0.8948    3.8103   62.3635 H       1  <0>         0.1400
     45 H45         0.6547    5.3690   60.4720 H       1  <0>         0.1600
     46 H46        -0.2397    2.8722   55.0074 H       1  <0>         0.1000
     47 H47        -1.8092    2.0473   55.1685 H       1  <0>         0.0400
     48 H48        -2.0869    3.9464   53.6651 H       1  <0>         0.1000
     49 H49        -1.3494    5.0458   54.8601 H       1  <0>         0.0800
@<TRIPOS>BOND
     1     1     2    2
     2     2     3   am
     3     2    12    1
     4     3     4    1
     5     3    27    1
     6     4     5    1
     7     4    28    1
     8     4    29    1
     9     5     6    1
    10     5    30    1
    11     5    31    1
    12     6    11   ar
    13     6     7   ar
    14     7     8   ar
    15     7    32    1
    16     8     9   ar
    17     8    33    1
    18     9    10   ar
    19    10    11   ar
    20    10    34    1
    21    11    35    1
    22    12    13    2
    23    12    14   am
    24    14    26    1
    25    14    15    1
    26    15    16    1
    27    15    36    1
    28    15    37    1
    29    16    17    1
    30    16    38    1
    31    16    39    1
    32    17    18    1
    33    17    25    1
    34    18    19    1
    35    18    40    1
    36    18    41    1
    37    19    24   ar
    38    19    20   ar
    39    20    21   ar
    40    20    42    1
    41    21    22   ar
    42    21    43    1
    43    22    23   ar
    44    22    44    1
    45    23    24   ar
    46    23    45    1
    47    25    26    1
    48    25    46    1
    49    25    47    1
    50    26    48    1
    51    26    49    1
@<TRIPOS>SUBSTRUCTURE
     1 <0>         1 TEMP              0 ****  ****    0 ROOT


##########                                Name:    ZINC000077537368
##########                DOCK_Rotatable_Bonds:                   5
##########                         Heavy_Atoms:                  27
##########                    Molecular_Weight:             365.478
##########                DOCK_Rotatable_Bonds:                   5
##########                       Formal_Charge:          -0.0400007
##########                     HBond_Acceptors:                   6
##########                        HBond_Donors:                   0
##########                         Heavy_Atoms:                  27
##########                          Grid_Score:          -30.904034
##########                     Grid_vdw_energy:          -28.687654
##########                      Grid_es_energy:           -2.216380
##########           Internal_energy_repulsive:           11.759281

@<TRIPOS>MOLECULE
ZINC000077537368
 54 56 1 0 0
SMALL
USER_CHARGES


@<TRIPOS>ATOM
      1 C1         -0.4807    4.2815   60.8148 C.3     1  ZINC000077537368    0.0800
      2 N2          0.1256    2.9749   60.5477 N.pl3   1  ZINC000077537368   -0.2600
      3 N3          0.0366    1.9473   61.3133 N.2     1  ZINC000077537368   -0.2700
      4 C4          0.6830    0.9289   60.8056 C.2     1  ZINC000077537368    0.0400
      5 C5          0.8004   -0.4425   61.4190 C.3     1  ZINC000077537368    0.0200
      6 C6         -0.3256   -1.3348   60.8929 C.3     1  ZINC000077537368   -0.1400
      7 C7          2.1523   -1.0541   61.0457 C.3     1  ZINC000077537368   -0.1400
      8 C8          0.6940   -0.3313   62.9413 C.3     1  ZINC000077537368   -0.1400
      9 C9          1.2440    1.3385   59.5939 C.2     1  ZINC000077537368   -0.2000
     10 C10         0.8668    2.6617   59.4439 C.2     1  ZINC000077537368   -0.0400
     11 C11         1.2041    3.5549   58.3240 C.2     1  ZINC000077537368    0.5900
     12 O12         2.0644    4.4038   58.4611 O.2     1  ZINC000077537368   -0.5400
     13 N13         0.5598    3.4324   57.1466 N.am    1  ZINC000077537368   -0.6000
     14 C14        -0.4878    2.4167   56.9615 C.3     1  ZINC000077537368    0.0800
     15 C15        -1.7345    3.1018   56.3917 C.3     1  ZINC000077537368    0.0400
     16 N16        -1.3694    3.8458   55.1787 N.3     1  ZINC000077537368   -0.5300
     17 C17        -2.5634    4.3747   54.5062 C.3     1  ZINC000077537368    0.0900
     18 C18        -2.5949    3.8866   53.0808 C.ar    1  ZINC000077537368   -0.0500
     19 C19        -3.7336    3.2747   52.5874 C.ar    1  ZINC000077537368   -0.1200
     20 C20        -3.7691    2.8253   51.2837 C.ar    1  ZINC000077537368   -0.0700
     21 C21        -2.6525    2.9893   50.4614 C.ar    1  ZINC000077537368   -0.0300
     22 C22        -2.6825    2.5256   49.1070 C.1     1  ZINC000077537368    0.2500
     23 N23        -2.7062    2.1576   48.0324 N.1     1  ZINC000077537368   -0.4100
     24 C24        -1.5069    3.6080   50.9658 C.ar    1  ZINC000077537368   -0.0700
     25 C25        -1.4869    4.0576   52.2698 C.ar    1  ZINC000077537368   -0.1000
     26 C26        -0.4151    4.9211   55.4803 C.3     1  ZINC000077537368    0.0400
     27 C27         0.8814    4.3147   56.0147 C.3     1  ZINC000077537368    0.1200
     28 H28        -1.4424    4.3466   60.3060 H       1  ZINC000077537368    0.0800
     29 H29        -0.6287    4.4008   61.8880 H       1  ZINC000077537368    0.1000
     30 H30         0.1779    5.0692   60.4490 H       1  ZINC000077537368    0.1100
     31 H31        -0.2497   -1.4140   59.8084 H       1  ZINC000077537368    0.0600
     32 H32        -0.2406   -2.3268   61.3365 H       1  ZINC000077537368    0.0600
     33 H33        -1.2887   -0.8991   61.1589 H       1  ZINC000077537368    0.0600
     34 H34         2.9546   -0.4184   61.4205 H       1  ZINC000077537368    0.0600
     35 H35         2.2374   -2.0461   61.4894 H       1  ZINC000077537368    0.0600
     36 H36         2.2282   -1.1333   59.9612 H       1  ZINC000077537368    0.0600
     37 H37        -0.2691    0.1044   63.2072 H       1  ZINC000077537368    0.0600
     38 H38         0.7790   -1.3233   63.3849 H       1  ZINC000077537368    0.0600
     39 H39         1.4963    0.3043   63.3161 H       1  ZINC000077537368    0.0600
     40 H40         1.8420    0.7474   58.9161 H       1  ZINC000077537368    0.1700
     41 H41        -0.1391    1.6536   56.2658 H       1  ZINC000077537368    0.0800
     42 H42        -0.7279    1.9592   57.9212 H       1  ZINC000077537368    0.1200
     43 H43        -2.4827    2.3485   56.1449 H       1  ZINC000077537368    0.0900
     44 H44        -2.1416    3.7905   57.1321 H       1  ZINC000077537368    0.0400
     45 H45        -3.4566    4.0308   55.0278 H       1  ZINC000077537368    0.0900
     46 H46        -2.5335    5.4643   54.5165 H       1  ZINC000077537368    0.0500
     47 H47        -4.5965    3.1485   53.2245 H       1  ZINC000077537368    0.1300
     48 H48        -4.6583    2.3472   50.9000 H       1  ZINC000077537368    0.1300
     49 H49        -0.6399    3.7381   50.3351 H       1  ZINC000077537368    0.1300
     50 H50        -0.6017    4.5366   52.6611 H       1  ZINC000077537368    0.1400
     51 H51        -0.2063    5.4872   54.5725 H       1  ZINC000077537368    0.1000
     52 H52        -0.8406    5.5844   56.2333 H       1  ZINC000077537368    0.0400
     53 H53         1.5482    5.1105   56.3466 H       1  ZINC000077537368    0.1000
     54 H54         1.3640    3.7323   55.2298 H       1  ZINC000077537368    0.0800
@<TRIPOS>BOND
     1     1     2    1
     2     1    28    1
     3     1    29    1
     4     1    30    1
     5     2    10    1
     6     2     3    1
     7     3     4    2
     8     4     5    1
     9     4     9    1
    10     5     6    1
    11     5     7    1
    12     5     8    1
    13     6    31    1
    14     6    32    1
    15     6    33    1
    16     7    34    1
    17     7    35    1
    18     7    36    1
    19     8    37    1
    20     8    38    1
    21     8    39    1
    22     9    10    2
    23     9    40    1
    24    10    11    1
    25    11    12    2
    26    11    13   am
    27    13    27    1
    28    13    14    1
    29    14    15    1
    30    14    41    1
    31    14    42    1
    32    15    16    1
    33    15    43    1
    34    15    44    1
    35    16    17    1
    36    16    26    1
    37    17    18    1
    38    17    45    1
    39    17    46    1
    40    18    25   ar
    41    18    19   ar
    42    19    20   ar
    43    19    47    1
    44    20    21   ar
    45    20    48    1
    46    21    22    1
    47    21    24   ar
    48    22    23    3
    49    24    25   ar
    50    24    49    1
    51    25    50    1
    52    26    27    1
    53    26    51    1
    54    26    52    1
    55    27    53    1
    56    27    54    1
@<TRIPOS>SUBSTRUCTURE
     1 ZINC000077537368        1 TEMP              0 ****  ****    0 ROOT


##########                                Name:    ZINC000051488227
##########                DOCK_Rotatable_Bonds:                   8
##########                         Heavy_Atoms:                  30
##########                    Molecular_Weight:             403.478
##########                DOCK_Rotatable_Bonds:                   8
##########                       Formal_Charge:           0.0199996
##########                     HBond_Acceptors:                   5
##########                        HBond_Donors:                   0
##########                         Heavy_Atoms:                  30
##########                          Grid_Score:          -30.885553
##########                     Grid_vdw_energy:          -30.244913
##########                      Grid_es_energy:           -0.640640
##########           Internal_energy_repulsive:           22.862963

@<TRIPOS>MOLECULE
ZINC000051488227
 55 58 1 0 0
SMALL
USER_CHARGES


@<TRIPOS>ATOM
      1 O1        -12.4217    0.8979   55.4533 O.2     1  ZINC000051488227   -0.5000
      2 C2        -11.5470    0.0691   55.3637 C.2     1  ZINC000051488227    0.4800
      3 O3        -10.6740    0.1222   54.3454 O.3     1  ZINC000051488227   -0.3400
      4 C4        -10.5469    1.3913   53.6516 C.3     1  ZINC000051488227    0.1100
      5 C5         -9.2252    1.4387   52.9291 C.ar    1  ZINC000051488227   -0.1400
      6 C6         -8.7336    0.3021   52.3143 C.ar    1  ZINC000051488227   -0.0500
      7 C7         -7.5222    0.3428   51.6515 C.ar    1  ZINC000051488227   -0.1500
      8 C8         -6.7991    1.5258   51.6027 C.ar    1  ZINC000051488227    0.1500
      9 O9         -5.6074    1.5686   50.9509 O.3     1  ZINC000051488227   -0.3100
     10 C10        -4.8445    2.7709   51.0721 C.3     1  ZINC000051488227    0.1100
     11 C11        -3.6094    2.6707   50.2144 C.ar    1  ZINC000051488227    0.1200
     12 C12        -2.4284    3.2416   50.6485 C.ar    1  ZINC000051488227   -0.1500
     13 C13        -1.2975    3.1433   49.8520 C.ar    1  ZINC000051488227   -0.0700
     14 C14        -1.3980    2.4715   48.6436 C.ar    1  ZINC000051488227   -0.1700
     15 C15        -2.6135    1.9257   48.2754 C.ar    1  ZINC000051488227    0.1100
     16 N16        -3.6670    2.0343   49.0607 N.ar    1  ZINC000051488227   -0.4800
     17 C17        -7.2948    2.6651   52.2199 C.ar    1  ZINC000051488227   -0.2100
     18 C18        -8.5090    2.6202   52.8774 C.ar    1  ZINC000051488227   -0.0500
     19 C19       -11.4323   -1.0203   56.3985 C.3     1  ZINC000051488227    0.0000
     20 C20       -10.4485   -0.6043   57.4615 C.ar    1  ZINC000051488227   -0.0900
     21 C21        -9.8616    0.6462   57.4087 C.ar    1  ZINC000051488227   -0.1100
     22 C22        -8.9592    1.0278   58.3838 C.ar    1  ZINC000051488227   -0.1200
     23 C23        -8.6439    0.1593   59.4119 C.ar    1  ZINC000051488227   -0.1100
     24 C24        -9.2314   -1.0909   59.4651 C.ar    1  ZINC000051488227   -0.1200
     25 C25       -10.1371   -1.4710   58.4925 C.ar    1  ZINC000051488227   -0.1000
     26 C26       -12.8031   -1.2683   57.0354 C.3     1  ZINC000051488227   -0.1400
     27 C27       -13.7742   -1.7648   55.9610 C.3     1  ZINC000051488227    0.0600
     28 O28       -13.2512   -2.9509   55.3595 O.3     1  ZINC000051488227   -0.3800
     29 C29       -11.9928   -2.7682   54.7073 C.3     1  ZINC000051488227    0.0500
     30 C30       -10.9503   -2.3122   55.7315 C.3     1  ZINC000051488227   -0.1400
     31 H31       -11.3586    1.4946   52.9314 H       1  ZINC000051488227    0.0800
     32 H32       -10.5958    2.2066   54.3735 H       1  ZINC000051488227    0.0800
     33 H33        -9.2969   -0.6187   52.3527 H       1  ZINC000051488227    0.1300
     34 H34        -7.1383   -0.5454   51.1721 H       1  ZINC000051488227    0.1400
     35 H35        -5.4469    3.6181   50.7442 H       1  ZINC000051488227    0.0900
     36 H36        -4.5535    2.9131   52.1129 H       1  ZINC000051488227    0.0900
     37 H37        -2.3866    3.7582   51.5960 H       1  ZINC000051488227    0.1400
     38 H38        -0.3608    3.5801   50.1655 H       1  ZINC000051488227    0.1400
     39 H39        -0.5376    2.3760   47.9978 H       1  ZINC000051488227    0.1400
     40 H40        -2.7001    1.4011   47.3353 H       1  ZINC000051488227    0.1600
     41 H41        -6.7336    3.5870   52.1836 H       1  ZINC000051488227    0.1300
     42 H42        -8.8955    3.5069   53.3578 H       1  ZINC000051488227    0.1300
     43 H43       -10.1080    1.3248   56.6055 H       1  ZINC000051488227    0.1300
     44 H44        -8.5001    2.0045   58.3422 H       1  ZINC000051488227    0.1300
     45 H45        -7.9382    0.4572   60.1733 H       1  ZINC000051488227    0.1200
     46 H46        -8.9849   -1.7696   60.2683 H       1  ZINC000051488227    0.1200
     47 H47       -10.5962   -2.4477   58.5342 H       1  ZINC000051488227    0.1300
     48 H48       -12.7104   -2.0212   57.8183 H       1  ZINC000051488227    0.0900
     49 H49       -13.1788   -0.3395   57.4648 H       1  ZINC000051488227    0.0900
     50 H50       -14.7397   -1.9837   56.4167 H       1  ZINC000051488227    0.1000
     51 H51       -13.8978   -0.9950   55.1992 H       1  ZINC000051488227    0.0500
     52 H52       -11.6752   -3.7101   54.2600 H       1  ZINC000051488227    0.1000
     53 H53       -12.0931   -2.0117   53.9292 H       1  ZINC000051488227    0.0700
     54 H54       -10.0008   -2.1298   55.2283 H       1  ZINC000051488227    0.0900
     55 H55       -10.8200   -3.0860   56.4880 H       1  ZINC000051488227    0.0900
@<TRIPOS>BOND
     1     1     2    2
     2     2     3    1
     3     2    19    1
     4     3     4    1
     5     4     5    1
     6     4    31    1
     7     4    32    1
     8     5    18   ar
     9     5     6   ar
    10     6     7   ar
    11     6    33    1
    12     7     8   ar
    13     7    34    1
    14     8     9    1
    15     8    17   ar
    16     9    10    1
    17    10    11    1
    18    10    35    1
    19    10    36    1
    20    11    16   ar
    21    11    12   ar
    22    12    13   ar
    23    12    37    1
    24    13    14   ar
    25    13    38    1
    26    14    15   ar
    27    14    39    1
    28    15    16   ar
    29    15    40    1
    30    17    18   ar
    31    17    41    1
    32    18    42    1
    33    19    30    1
    34    19    20    1
    35    19    26    1
    36    20    25   ar
    37    20    21   ar
    38    21    22   ar
    39    21    43    1
    40    22    23   ar
    41    22    44    1
    42    23    24   ar
    43    23    45    1
    44    24    25   ar
    45    24    46    1
    46    25    47    1
    47    26    27    1
    48    26    48    1
    49    26    49    1
    50    27    28    1
    51    27    50    1
    52    27    51    1
    53    28    29    1
    54    29    30    1
    55    29    52    1
    56    29    53    1
    57    30    54    1
    58    30    55    1
@<TRIPOS>SUBSTRUCTURE
     1 ZINC000051488227        1 TEMP              0 ****  ****    0 ROOT


##########                                Name:    ZINC000672622940
##########                DOCK_Rotatable_Bonds:                   7
##########                         Heavy_Atoms:                  30
##########                    Molecular_Weight:             416.523
##########                DOCK_Rotatable_Bonds:                   7
##########                       Formal_Charge:          -0.0100002
##########                     HBond_Acceptors:                   9
##########                        HBond_Donors:                   1
##########                         Heavy_Atoms:                  30
##########                          Grid_Score:          -30.873531
##########                     Grid_vdw_energy:          -29.488823
##########                      Grid_es_energy:           -1.384708
##########           Internal_energy_repulsive:           28.890356

@<TRIPOS>MOLECULE
ZINC000672622940
 62 65 1 0 0
SMALL
USER_CHARGES


@<TRIPOS>ATOM
      1 C1        -10.3795    0.5557   57.0172 C.3     1  ZINC000672622940    0.0800
      2 N2         -9.2579    0.8410   57.9153 N.am    1  ZINC000672622940   -0.6200
      3 C3         -9.0356    0.0055   59.0980 C.3     1  ZINC000672622940    0.0700
      4 C4         -8.4305    1.8723   57.6535 C.2     1  ZINC000672622940    0.5200
      5 O5         -7.5010    2.1076   58.3962 O.2     1  ZINC000672622940   -0.5300
      6 C6         -8.6603    2.7328   56.4378 C.3     1  ZINC000672622940   -0.1000
      7 H7         -9.1244    2.1360   55.6527 H       1  ZINC000672622940    0.1000
      8 C8         -9.5813    3.8981   56.8046 C.3     1  ZINC000672622940   -0.1300
      9 C9         -9.8145    4.7718   55.5704 C.3     1  ZINC000672622940   -0.1100
     10 C10        -8.4752    5.3178   55.0716 C.3     1  ZINC000672622940   -0.1300
     11 C11        -7.5542    4.1523   54.7048 C.3     1  ZINC000672622940    0.1400
     12 H12        -8.0183    3.5556   53.9196 H       1  ZINC000672622940    0.1000
     13 N13        -6.2716    4.6752   54.2270 N.am    1  ZINC000672622940   -0.6900
     14 C14        -6.1203    5.0068   52.9295 C.2     1  ZINC000672622940    0.5100
     15 O15        -7.0469    4.8737   52.1572 O.2     1  ZINC000672622940   -0.5100
     16 C16        -4.8115    5.5384   52.4418 C.2     1  ZINC000672622940    0.5100
     17 O17        -4.6084    6.7347   52.4316 O.2     1  ZINC000672622940   -0.5200
     18 N18        -3.8567    4.6890   52.0134 N.am    1  ZINC000672622940   -0.5800
     19 C19        -4.0900    3.2385   52.0141 C.3     1  ZINC000672622940    0.0700
     20 C20        -3.8052    2.6926   50.6113 C.3     1  ZINC000672622940   -0.1200
     21 C21        -2.3932    3.1018   50.1861 C.3     1  ZINC000672622940    0.0000
     22 C22        -2.0968    2.5377   48.8204 C.2     1  ZINC000672622940    0.2000
     23 N23        -2.9218    1.8655   48.0651 N.2     1  ZINC000672622940   -0.2800
     24 N24        -2.3364    1.5401   46.9676 N.2     1  ZINC000672622940   -0.2800
     25 C25        -1.1102    1.9918   46.9734 C.2     1  ZINC000672622940    0.1500
     26 C26         0.1547    2.0521   46.1448 C.3     1  ZINC000672622940   -0.0400
     27 C27         0.9872    3.1768   46.8017 C.3     1  ZINC000672622940   -0.1300
     28 C28         0.4382    3.1745   48.2452 C.3     1  ZINC000672622940    0.1000
     29 N29        -0.9251    2.6393   48.1454 N.pl3   1  ZINC000672622940   -0.4900
     30 C30        -2.2950    4.6284   50.1395 C.3     1  ZINC000672622940   -0.1200
     31 C31        -2.5650    5.1965   51.5311 C.3     1  ZINC000672622940    0.1100
     32 C32        -7.3209    3.2787   55.9389 C.3     1  ZINC000672622940   -0.1100
     33 H33       -11.2592    1.1079   57.3476 H       1  ZINC000672622940    0.0600
     34 H34       -10.1195    0.8595   56.0032 H       1  ZINC000672622940    0.0800
     35 H35       -10.5944   -0.5128   57.0324 H       1  ZINC000672622940    0.0700
     36 H36        -8.3789   -0.8248   58.8381 H       1  ZINC000672622940    0.0600
     37 H37        -8.5724    0.6032   59.8831 H       1  ZINC000672622940    0.0800
     38 H38        -9.9901   -0.3834   59.4527 H       1  ZINC000672622940    0.0700
     39 H39       -10.5355    3.5091   57.1600 H       1  ZINC000672622940    0.0800
     40 H40        -9.1170    4.4949   57.5898 H       1  ZINC000672622940    0.0700
     41 H41       -10.2787    4.1750   54.7853 H       1  ZINC000672622940    0.0700
     42 H42       -10.4707    5.6020   55.8318 H       1  ZINC000672622940    0.0700
     43 H43        -8.6413    5.9402   54.1923 H       1  ZINC000672622940    0.0700
     44 H44        -8.0109    5.9145   55.8567 H       1  ZINC000672622940    0.0700
     45 H45        -5.5314    4.7826   54.8446 H       1  ZINC000672622940    0.4100
     46 H46        -3.4246    2.7617   52.7338 H       1  ZINC000672622940    0.0700
     47 H47        -5.1270    3.0353   52.2816 H       1  ZINC000672622940    0.1400
     48 H48        -3.8812    1.6053   50.6217 H       1  ZINC000672622940    0.0800
     49 H49        -4.5300    3.1018   49.9076 H       1  ZINC000672622940    0.0800
     50 H50        -1.6708    2.7135   50.9039 H       1  ZINC000672622940    0.0900
     51 H51         0.6891    1.1034   46.1949 H       1  ZINC000672622940    0.1000
     52 H52        -0.0788    2.3050   45.1105 H       1  ZINC000672622940    0.1000
     53 H53         2.0497    2.9342   46.7882 H       1  ZINC000672622940    0.1100
     54 H54         0.8011    4.1345   46.3154 H       1  ZINC000672622940    0.0900
     55 H55         1.0524    2.5366   48.8809 H       1  ZINC000672622940    0.1000
     56 H56         0.4135    4.1900   48.6405 H       1  ZINC000672622940    0.1000
     57 H57        -1.2961    4.9190   49.8139 H       1  ZINC000672622940    0.0800
     58 H58        -3.0341    5.0193   49.4402 H       1  ZINC000672622940    0.0800
     59 H59        -2.5939    6.2851   51.4821 H       1  ZINC000672622940    0.1000
     60 H60        -1.7767    4.8803   52.2142 H       1  ZINC000672622940    0.0800
     61 H61        -6.8566    3.8755   56.7241 H       1  ZINC000672622940    0.0800
     62 H62        -6.6647    2.4485   55.6776 H       1  ZINC000672622940    0.0800
@<TRIPOS>BOND
     1     1     2    1
     2     1    33    1
     3     1    34    1
     4     1    35    1
     5     2     3    1
     6     2     4   am
     7     3    36    1
     8     3    37    1
     9     3    38    1
    10     4     5    2
    11     4     6    1
    12     6     7    1
    13     6    32    1
    14     6     8    1
    15     8     9    1
    16     8    39    1
    17     8    40    1
    18     9    10    1
    19     9    41    1
    20     9    42    1
    21    10    11    1
    22    10    43    1
    23    10    44    1
    24    11    12    1
    25    11    13    1
    26    11    32    1
    27    13    14   am
    28    13    45    1
    29    14    15    2
    30    14    16    1
    31    16    17    2
    32    16    18   am
    33    18    31    1
    34    18    19    1
    35    19    20    1
    36    19    46    1
    37    19    47    1
    38    20    21    1
    39    20    48    1
    40    20    49    1
    41    21    22    1
    42    21    30    1
    43    21    50    1
    44    22    29    1
    45    22    23    2
    46    23    24    1
    47    24    25    2
    48    25    29    1
    49    25    26    1
    50    26    27    1
    51    26    51    1
    52    26    52    1
    53    27    28    1
    54    27    53    1
    55    27    54    1
    56    28    29    1
    57    28    55    1
    58    28    56    1
    59    30    31    1
    60    30    57    1
    61    30    58    1
    62    31    59    1
    63    31    60    1
    64    32    61    1
    65    32    62    1
@<TRIPOS>SUBSTRUCTURE
     1 ZINC000672622940        1 TEMP              0 ****  ****    0 ROOT


##########                                Name:    ZINC000676204775
##########                DOCK_Rotatable_Bonds:                   4
##########                         Heavy_Atoms:                  25
##########                    Molecular_Weight:             359.452
##########                DOCK_Rotatable_Bonds:                   4
##########                       Formal_Charge:          0.00999978
##########                     HBond_Acceptors:                   8
##########                        HBond_Donors:                   2
##########                         Heavy_Atoms:                  25
##########                          Grid_Score:          -30.835358
##########                     Grid_vdw_energy:          -31.143646
##########                      Grid_es_energy:            0.308289
##########           Internal_energy_repulsive:            6.224774

@<TRIPOS>MOLECULE
ZINC000676204775
 46 49 1 0 0
SMALL
USER_CHARGES


@<TRIPOS>ATOM
      1 C1        -13.4813   -4.2197   55.2253 C.3     1  ZINC000676204775   -0.1600
      2 C2        -13.4960   -3.4415   56.5427 C.3     1  ZINC000676204775    0.1600
      3 C3        -14.5969   -3.9951   57.4496 C.3     1  ZINC000676204775   -0.1600
      4 N4        -12.1983   -3.5828   57.2077 N.pl3   1  ZINC000676204775   -0.3900
      5 N5        -11.4809   -4.7760   57.3421 N.2     1  ZINC000676204775   -0.2500
      6 C6        -10.3679   -4.5592   57.9826 C.2     1  ZINC000676204775    0.0900
      7 C7        -10.3113   -3.1382   58.3099 C.ar    1  ZINC000676204775   -0.2100
      8 C8         -9.3836   -2.3296   58.9755 C.ar    1  ZINC000676204775    0.0800
      9 C9         -9.6330   -0.9955   59.1213 C.ar    1  ZINC000676204775   -0.7200
     10 S10        -8.4654    0.0241   59.9588 S.o2    1  ZINC000676204775    2.6900
     11 O11        -7.7541   -0.8267   60.8473 O.2     1  ZINC000676204775   -0.9300
     12 O12        -7.8301    0.8104   58.9601 O.2     1  ZINC000676204775   -0.9600
     13 N13        -9.3243    1.0764   60.9061 N.am    1  ZINC000676204775   -1.1100
     14 C14       -10.2128    0.5628   61.9515 C.3     1  ZINC000676204775    0.2400
     15 H15       -10.5103   -0.4582   61.7123 H       1  ZINC000676204775    0.1000
     16 C16       -11.4572    1.4533   62.0563 C.3     1  ZINC000676204775   -0.1200
     17 C17       -12.2660    1.0673   63.2967 C.3     1  ZINC000676204775   -0.1200
     18 C18       -11.5247    1.5221   64.5602 C.3     1  ZINC000676204775   -0.0400
     19 C19       -10.1009    1.0302   64.4736 C.2     1  ZINC000676204775   -0.2300
     20 C20        -9.1920    0.9275   65.4608 C.2     1  ZINC000676204775    0.0600
     21 N21        -8.0546    0.4359   64.9201 N.pl3   1  ZINC000676204775   -0.4800
     22 N22        -8.2788    0.2318   63.5501 N.2     1  ZINC000676204775   -0.2400
     23 C23        -9.5009    0.5872   63.2824 C.2     1  ZINC000676204775    0.0500
     24 C24       -10.7987   -0.4340   58.6153 C.ar    1  ZINC000676204775    0.0100
     25 C25       -11.7196   -1.2029   57.9616 C.ar    1  ZINC000676204775   -0.1500
     26 C26       -11.4899   -2.5659   57.7928 C.ar    1  ZINC000676204775    0.1700
     27 H27       -12.6971   -3.8253   54.5792 H       1  ZINC000676204775    0.0600
     28 H28       -13.2896   -5.2733   55.4279 H       1  ZINC000676204775    0.0700
     29 H29       -14.4468   -4.1146   54.7305 H       1  ZINC000676204775    0.0800
     30 H30       -13.6877   -2.3878   56.3401 H       1  ZINC000676204775    0.1000
     31 H31       -14.4051   -5.0488   57.6522 H       1  ZINC000676204775    0.0700
     32 H32       -14.6073   -3.4408   58.3881 H       1  ZINC000676204775    0.0600
     33 H33       -15.5624   -3.8900   56.9548 H       1  ZINC000676204775    0.0800
     34 H34        -9.6203   -5.2990   58.2280 H       1  ZINC000676204775    0.2000
     35 H35        -8.4753   -2.7587   59.3719 H       1  ZINC000676204775    0.1500
     36 H36        -9.2389    2.0329   60.7689 H       1  ZINC000676204775    0.4200
     37 H37       -11.1510    2.4965   62.1333 H       1  ZINC000676204775    0.0800
     38 H38       -12.0731    1.3218   61.1666 H       1  ZINC000676204775    0.0800
     39 H39       -13.2431    1.5488   63.2566 H       1  ZINC000676204775    0.0700
     40 H40       -12.3964   -0.0145   63.3225 H       1  ZINC000676204775    0.0700
     41 H41       -11.5347    2.6103   64.6208 H       1  ZINC000676204775    0.0700
     42 H42       -12.0068    1.0995   65.4416 H       1  ZINC000676204775    0.0700
     43 H43        -9.3438    1.1902   66.4972 H       1  ZINC000676204775    0.1800
     44 H44        -7.2286    0.2559   65.3958 H       1  ZINC000676204775    0.4400
     45 H45       -10.9792    0.6235   58.7405 H       1  ZINC000676204775    0.1500
     46 H46       -12.6217   -0.7538   57.5731 H       1  ZINC000676204775    0.1300
@<TRIPOS>BOND
     1     1     2    1
     2     1    27    1
     3     1    28    1
     4     1    29    1
     5     2     3    1
     6     2     4    1
     7     2    30    1
     8     3    31    1
     9     3    32    1
    10     3    33    1
    11     4    26    1
    12     4     5    1
    13     5     6    2
    14     6     7    1
    15     6    34    1
    16     7    26   ar
    17     7     8   ar
    18     8     9   ar
    19     8    35    1
    20     9    10    1
    21     9    24   ar
    22    10    11    2
    23    10    12    2
    24    10    13   am
    25    13    14    1
    26    13    36    1
    27    14    15    1
    28    14    23    1
    29    14    16    1
    30    16    17    1
    31    16    37    1
    32    16    38    1
    33    17    18    1
    34    17    39    1
    35    17    40    1
    36    18    19    1
    37    18    41    1
    38    18    42    1
    39    19    23    1
    40    19    20    2
    41    20    21    1
    42    20    43    1
    43    21    22    1
    44    21    44    1
    45    22    23    2
    46    24    25   ar
    47    24    45    1
    48    25    26   ar
    49    25    46    1
@<TRIPOS>SUBSTRUCTURE
     1 ZINC000676204775        1 TEMP              0 ****  ****    0 ROOT


##########                                Name:    ZINC000002634904
##########                DOCK_Rotatable_Bonds:                   7
##########                         Heavy_Atoms:                  31
##########                    Molecular_Weight:             423.498
##########                DOCK_Rotatable_Bonds:                   7
##########                       Formal_Charge:        -7.45058e-08
##########                     HBond_Acceptors:                   7
##########                        HBond_Donors:                   1
##########                         Heavy_Atoms:                  31
##########                          Grid_Score:          -30.831585
##########                     Grid_vdw_energy:          -30.111891
##########                      Grid_es_energy:           -0.719694
##########           Internal_energy_repulsive:            6.661354

@<TRIPOS>MOLECULE
ZINC000002634904
 48 51 1 0 0
SMALL
USER_CHARGES


@<TRIPOS>ATOM
      1 N1        -13.0853    0.8532   55.1814 N.1     1  ZINC000002634904   -0.4100
      2 C2        -12.0794    0.8068   54.6556 C.1     1  ZINC000002634904    0.2500
      3 C3        -10.8114    0.7482   53.9927 C.ar    1  ZINC000002634904   -0.0400
      4 C4         -9.9282    1.8285   54.0734 C.ar    1  ZINC000002634904   -0.0500
      5 C5         -8.7097    1.7687   53.4347 C.ar    1  ZINC000002634904   -0.1400
      6 C6         -8.3575    0.6349   52.7099 C.ar    1  ZINC000002634904    0.1700
      7 N7         -7.1218    0.5778   52.0640 N.am    1  ZINC000002634904   -0.6700
      8 C8         -6.7876    1.5237   51.1640 C.2     1  ZINC000002634904    0.5400
      9 O9         -7.5607    2.4244   50.9154 O.2     1  ZINC000002634904   -0.5000
     10 C10        -5.4531    1.4621   50.4665 C.3     1  ZINC000002634904   -0.1700
     11 S11        -4.2879    2.5729   51.2939 S.3     1  ZINC000002634904    0.1300
     12 C12        -2.9744    2.5684   50.1196 C.ar    1  ZINC000002634904    0.2100
     13 N13        -3.1999    2.1243   48.8882 N.ar    1  ZINC000002634904   -0.2900
     14 N14        -2.2709    2.1025   47.9979 N.ar    1  ZINC000002634904   -0.1600
     15 C15        -1.0471    2.5290   48.2912 C.ar    1  ZINC000002634904    0.0600
     16 C16         0.0237    2.5052   47.2673 C.ar    1  ZINC000002634904   -0.0500
     17 C17         0.8402    1.3826   47.1344 C.ar    1  ZINC000002634904   -0.0800
     18 C18         1.8357    1.3663   46.1790 C.ar    1  ZINC000002634904   -0.1200
     19 C19         2.0249    2.4608   45.3545 C.ar    1  ZINC000002634904   -0.1000
     20 C20         1.2181    3.5773   45.4817 C.ar    1  ZINC000002634904   -0.1200
     21 C21         0.2152    3.6030   46.4291 C.ar    1  ZINC000002634904   -0.0800
     22 C22        -0.7838    3.0049   49.5914 C.ar    1  ZINC000002634904    0.2300
     23 C23         0.5663    3.4898   49.9616 C.ar    1  ZINC000002634904   -0.0700
     24 C24         1.4247    2.6755   50.6996 C.ar    1  ZINC000002634904   -0.0700
     25 C25         2.6812    3.1324   51.0410 C.ar    1  ZINC000002634904   -0.1200
     26 C26         3.0899    4.3957   50.6526 C.ar    1  ZINC000002634904   -0.0900
     27 C27         2.2427    5.2084   49.9207 C.ar    1  ZINC000002634904   -0.1200
     28 C28         0.9860    4.7602   49.5684 C.ar    1  ZINC000002634904   -0.0700
     29 N29        -1.7767    3.0138   50.4778 N.ar    1  ZINC000002634904   -0.4400
     30 C30        -9.2338   -0.4423   52.6277 C.ar    1  ZINC000002634904   -0.1200
     31 C31       -10.4516   -0.3917   53.2683 C.ar    1  ZINC000002634904   -0.0500
     32 H32       -10.2013    2.7092   54.6357 H       1  ZINC000002634904    0.1400
     33 H33        -8.0269    2.6032   53.4963 H       1  ZINC000002634904    0.1400
     34 H34        -6.5034   -0.1425   52.2629 H       1  ZINC000002634904    0.4200
     35 H35        -5.0708    0.4419   50.5030 H       1  ZINC000002634904    0.1300
     36 H36        -5.5718    1.7686   49.4273 H       1  ZINC000002634904    0.1300
     37 H37         0.6938    0.5278   47.7780 H       1  ZINC000002634904    0.1300
     38 H38         2.4686    0.4974   46.0751 H       1  ZINC000002634904    0.1300
     39 H39         2.8059    2.4437   44.6087 H       1  ZINC000002634904    0.1300
     40 H40         1.3706    4.4289   44.8351 H       1  ZINC000002634904    0.1300
     41 H41        -0.4143    4.4751   46.5273 H       1  ZINC000002634904    0.1200
     42 H42         1.1065    1.6891   51.0037 H       1  ZINC000002634904    0.1300
     43 H43         3.3467    2.5027   51.6128 H       1  ZINC000002634904    0.1300
     44 H44         4.0742    4.7490   50.9221 H       1  ZINC000002634904    0.1300
     45 H45         2.5671    6.1938   49.6206 H       1  ZINC000002634904    0.1300
     46 H46         0.3255    5.3956   48.9971 H       1  ZINC000002634904    0.1300
     47 H47        -8.9567   -1.3211   52.0644 H       1  ZINC000002634904    0.1500
     48 H48       -11.1313   -1.2286   53.2044 H       1  ZINC000002634904    0.1400
@<TRIPOS>BOND
     1     1     2    3
     2     2     3    1
     3     3    31   ar
     4     3     4   ar
     5     4     5   ar
     6     4    32    1
     7     5     6   ar
     8     5    33    1
     9     6     7    1
    10     6    30   ar
    11     7     8   am
    12     7    34    1
    13     8     9    2
    14     8    10    1
    15    10    11    1
    16    10    35    1
    17    10    36    1
    18    11    12    1
    19    12    29   ar
    20    12    13   ar
    21    13    14   ar
    22    14    15   ar
    23    15    16    1
    24    15    22   ar
    25    16    21   ar
    26    16    17   ar
    27    17    18   ar
    28    17    37    1
    29    18    19   ar
    30    18    38    1
    31    19    20   ar
    32    19    39    1
    33    20    21   ar
    34    20    40    1
    35    21    41    1
    36    22    23    1
    37    22    29   ar
    38    23    28   ar
    39    23    24   ar
    40    24    25   ar
    41    24    42    1
    42    25    26   ar
    43    25    43    1
    44    26    27   ar
    45    26    44    1
    46    27    28   ar
    47    27    45    1
    48    28    46    1
    49    30    31   ar
    50    30    47    1
    51    31    48    1
@<TRIPOS>SUBSTRUCTURE
     1 ZINC000002634904        1 TEMP              0 ****  ****    0 ROOT


##########                                Name:    ZINC000547864253
##########                DOCK_Rotatable_Bonds:                   6
##########                         Heavy_Atoms:                  30
##########                    Molecular_Weight:             422.548
##########                DOCK_Rotatable_Bonds:                   6
##########                       Formal_Charge:           0.0300002
##########                     HBond_Acceptors:                   6
##########                        HBond_Donors:                   2
##########                         Heavy_Atoms:                  30
##########                          Grid_Score:          -30.794502
##########                     Grid_vdw_energy:          -29.604076
##########                      Grid_es_energy:           -1.190426
##########           Internal_energy_repulsive:           17.713022

@<TRIPOS>MOLECULE
ZINC000547864253
 56 60 1 0 0
SMALL
USER_CHARGES


@<TRIPOS>ATOM
      1 O1         -1.5357    4.6336   49.2781 O.2     1  ZINC000547864253   -0.5300
      2 C2         -1.2994    4.4122   50.4469 C.2     1  ZINC000547864253    0.5400
      3 N3         -0.1564    3.7897   50.7971 N.am    1  ZINC000547864253   -0.7200
      4 C4          0.7976    3.3751   49.7655 C.3     1  ZINC000547864253    0.1300
      5 C5          0.3825    2.0135   49.2046 C.3     1  ZINC000547864253    0.0200
      6 H6         -0.4085    1.5912   49.8243 H       1  ZINC000547864253    0.0900
      7 C7         -0.1209    2.1833   47.7944 C.2     1  ZINC000547864253   -0.1600
      8 C8         -1.2888    1.7385   47.3044 C.2     1  ZINC000547864253    0.0600
      9 N9         -1.4010    2.0796   45.9841 N.pl3   1  ZINC000547864253   -0.5900
     10 C10        -0.2795    2.7698   45.5818 C.ar    1  ZINC000547864253    0.1000
     11 C11         0.1156    3.3342   44.3736 C.ar    1  ZINC000547864253   -0.1300
     12 C12         1.3309    3.9773   44.2837 C.ar    1  ZINC000547864253   -0.1000
     13 C13         2.1668    4.0685   45.3877 C.ar    1  ZINC000547864253   -0.1400
     14 C14         1.7984    3.5213   46.5846 C.ar    1  ZINC000547864253   -0.0700
     15 C15         0.5688    2.8706   46.6998 C.ar    1  ZINC000547864253   -0.1000
     16 C16         1.5705    1.0864   49.2057 C.ar    1  ZINC000547864253   -0.0700
     17 C17         1.8663    0.3406   48.0800 C.ar    1  ZINC000547864253   -0.1100
     18 C18         2.9560   -0.5099   48.0810 C.ar    1  ZINC000547864253   -0.1200
     19 C19         3.7503   -0.6143   49.2076 C.ar    1  ZINC000547864253   -0.1200
     20 C20         3.4551    0.1322   50.3330 C.ar    1  ZINC000547864253   -0.1100
     21 C21         2.3678    0.9859   50.3305 C.ar    1  ZINC000547864253   -0.1200
     22 C22        -2.2808    4.8387   51.5081 C.3     1  ZINC000547864253   -0.1700
     23 H23        -2.3019    5.9063   51.7270 H       1  ZINC000547864253    0.1400
     24 C24        -2.5285    3.8745   52.6695 C.3     1  ZINC000547864253   -0.1300
     25 C25        -3.6034    4.0726   51.5967 C.3     1  ZINC000547864253   -0.1400
     26 C26        -4.8503    4.8666   51.9884 C.3     1  ZINC000547864253   -0.0700
     27 C27        -5.8259    3.9579   52.7392 C.3     1  ZINC000547864253   -0.6000
     28 S28        -6.3198    2.5873   51.6559 S.o2    1  ZINC000547864253    2.4200
     29 O29        -7.0575    1.6455   52.4228 O.2     1  ZINC000547864253   -0.9400
     30 O30        -6.8980    3.1273   50.4755 O.2     1  ZINC000547864253   -0.9300
     31 C31        -4.7109    1.8589   51.2345 C.3     1  ZINC000547864253   -0.6000
     32 C32        -3.8227    2.9323   50.6016 C.3     1  ZINC000547864253   -0.0700
     33 H33         0.0345    3.6163   51.7321 H       1  ZINC000547864253    0.4000
     34 H34         0.8068    4.1116   48.9621 H       1  ZINC000547864253    0.0800
     35 H35         1.7940    3.3002   50.2011 H       1  ZINC000547864253    0.0700
     36 H36        -2.0299    1.1920   47.8688 H       1  ZINC000547864253    0.1700
     37 H37        -2.1580    1.8668   45.4160 H       1  ZINC000547864253    0.4200
     38 H38        -0.5278    3.2681   43.5086 H       1  ZINC000547864253    0.1200
     39 H39         1.6361    4.4145   43.3445 H       1  ZINC000547864253    0.1300
     40 H40         3.1163    4.5758   45.3003 H       1  ZINC000547864253    0.1200
     41 H41         2.4541    3.5961   47.4395 H       1  ZINC000547864253    0.1200
     42 H42         1.2457    0.4221   47.1998 H       1  ZINC000547864253    0.1200
     43 H43         3.1866   -1.0931   47.2017 H       1  ZINC000547864253    0.1200
     44 H44         4.6013   -1.2792   49.2086 H       1  ZINC000547864253    0.1200
     45 H45         4.0755    0.0504   51.2133 H       1  ZINC000547864253    0.1200
     46 H46         2.1372    1.5691   51.2097 H       1  ZINC000547864253    0.1200
     47 H47        -1.9816    2.9315   52.6663 H       1  ZINC000547864253    0.1100
     48 H48        -2.7129    4.3077   53.6526 H       1  ZINC000547864253    0.1100
     49 H49        -4.5631    5.6995   52.6303 H       1  ZINC000547864253    0.0900
     50 H50        -5.3320    5.2518   51.0896 H       1  ZINC000547864253    0.0900
     51 H51        -5.3407    3.5607   53.6308 H       1  ZINC000547864253    0.1400
     52 H52        -6.7078    4.5299   53.0278 H       1  ZINC000547864253    0.1400
     53 H53        -4.2351    1.4792   52.1386 H       1  ZINC000547864253    0.1400
     54 H54        -4.8550    1.0420   50.5273 H       1  ZINC000547864253    0.1400
     55 H55        -4.3065    3.3211   49.7055 H       1  ZINC000547864253    0.0900
     56 H56        -2.8610    2.4951   50.3332 H       1  ZINC000547864253    0.0900
@<TRIPOS>BOND
     1     1     2    2
     2     2     3   am
     3     2    22    1
     4     3     4    1
     5     3    33    1
     6     4     5    1
     7     4    34    1
     8     4    35    1
     9     5     6    1
    10     5     7    1
    11     5    16    1
    12     7    15    1
    13     7     8    2
    14     8     9    1
    15     8    36    1
    16     9    10    1
    17     9    37    1
    18    10    15   ar
    19    10    11   ar
    20    11    12   ar
    21    11    38    1
    22    12    13   ar
    23    12    39    1
    24    13    14   ar
    25    13    40    1
    26    14    15   ar
    27    14    41    1
    28    16    21   ar
    29    16    17   ar
    30    17    18   ar
    31    17    42    1
    32    18    19   ar
    33    18    43    1
    34    19    20   ar
    35    19    44    1
    36    20    21   ar
    37    20    45    1
    38    21    46    1
    39    22    23    1
    40    22    25    1
    41    22    24    1
    42    24    25    1
    43    24    47    1
    44    24    48    1
    45    25    32    1
    46    25    26    1
    47    26    27    1
    48    26    49    1
    49    26    50    1
    50    27    28    1
    51    27    51    1
    52    27    52    1
    53    28    29    2
    54    28    30    2
    55    28    31    1
    56    31    32    1
    57    31    53    1
    58    31    54    1
    59    32    55    1
    60    32    56    1
@<TRIPOS>SUBSTRUCTURE
     1 ZINC000547864253        1 TEMP              0 ****  ****    0 ROOT


##########                                Name:    ZINC000470948647
##########                DOCK_Rotatable_Bonds:                   6
##########                         Heavy_Atoms:                  29
##########                    Molecular_Weight:             412.556
##########                DOCK_Rotatable_Bonds:                   6
##########                       Formal_Charge:           0.0100001
##########                     HBond_Acceptors:                   7
##########                        HBond_Donors:                   1
##########                         Heavy_Atoms:                  29
##########                          Grid_Score:          -30.754162
##########                     Grid_vdw_energy:          -27.893749
##########                      Grid_es_energy:           -2.860412
##########           Internal_energy_repulsive:           14.428077

@<TRIPOS>MOLECULE
ZINC000470948647
 57 60 1 0 0
SMALL
USER_CHARGES


@<TRIPOS>ATOM
      1 C1         -2.1648    2.4494   48.2015 C.3     1  ZINC000470948647   -0.1100
      2 C2         -2.4213    2.7755   49.6503 C.ar    1  ZINC000470948647   -0.1000
      3 C3         -1.3583    2.9418   50.5185 C.ar    1  ZINC000470948647   -0.1100
      4 C4         -1.5900    3.2408   51.8471 C.ar    1  ZINC000470948647   -0.1100
      5 C5         -2.8921    3.3747   52.3101 C.ar    1  ZINC000470948647    0.1400
      6 N6         -3.1302    3.6779   53.6552 N.am    1  ZINC000470948647   -0.6700
      7 C7         -3.0573    4.9544   54.0813 C.2     1  ZINC000470948647    0.5100
      8 O8         -2.7853    5.8404   53.2988 O.2     1  ZINC000470948647   -0.4800
      9 C9         -3.3138    5.2811   55.5300 C.3     1  ZINC000470948647    0.1200
     10 H10        -2.9659    6.2952   55.7265 H       1  ZINC000470948647    0.1200
     11 C11        -4.8358    5.2184   55.7916 C.3     1  ZINC000470948647   -0.0700
     12 S12        -5.0108    3.5296   56.5062 S.3     1  ZINC000470948647   -0.2500
     13 C13        -3.3532    3.5593   57.3060 C.3     1  ZINC000470948647    0.1600
     14 N14        -2.5549    4.3573   56.3593 N.am    1  ZINC000470948647   -0.6000
     15 C15        -1.2151    4.2431   56.2682 C.2     1  ZINC000470948647    0.6300
     16 O16        -0.5997    4.9247   55.4714 O.2     1  ZINC000470948647   -0.5100
     17 C17        -0.4943    3.2900   57.1364 C.2     1  ZINC000470948647   -0.0100
     18 N18        -0.6642    3.1274   58.4333 N.2     1  ZINC000470948647   -0.2700
     19 N19         0.1268    2.2144   58.8705 N.pl3   1  ZINC000470948647   -0.2700
     20 C20         0.2074    1.7731   60.2652 C.3     1  ZINC000470948647    0.1500
     21 C21         0.4724    0.2669   60.3091 C.3     1  ZINC000470948647   -0.1300
     22 C22         0.5567   -0.1938   61.7657 C.3     1  ZINC000470948647   -0.1200
     23 C23         1.6965    0.5453   62.4694 C.3     1  ZINC000470948647   -0.1300
     24 C24         1.4315    2.0516   62.4254 C.3     1  ZINC000470948647   -0.1200
     25 C25         1.3473    2.5123   60.9689 C.3     1  ZINC000470948647   -0.1300
     26 C26         0.8731    1.7198   57.8597 C.2     1  ZINC000470948647   -0.0100
     27 C27         0.5054    2.3735   56.7328 C.2     1  ZINC000470948647   -0.1700
     28 C28        -3.9578    3.2074   51.4352 C.ar    1  ZINC000470948647   -0.1100
     29 C29        -5.3726    3.3523   51.9335 C.3     1  ZINC000470948647   -0.1100
     30 C30        -3.7193    2.9134   50.1072 C.ar    1  ZINC000470948647   -0.1000
     31 H31        -2.0741    3.3741   47.6315 H       1  ZINC000470948647    0.0700
     32 H32        -1.2408    1.8776   48.1158 H       1  ZINC000470948647    0.0700
     33 H33        -2.9941    1.8607   47.8093 H       1  ZINC000470948647    0.0700
     34 H34        -0.3457    2.8376   50.1578 H       1  ZINC000470948647    0.1200
     35 H35        -0.7592    3.3699   52.5250 H       1  ZINC000470948647    0.1400
     36 H36        -3.3478    2.9694   54.2810 H       1  ZINC000470948647    0.4100
     37 H37        -5.1416    5.9805   56.5084 H       1  ZINC000470948647    0.1200
     38 H38        -5.3970    5.3102   54.8618 H       1  ZINC000470948647    0.1200
     39 H39        -3.4024    4.0471   58.2795 H       1  ZINC000470948647    0.1000
     40 H40        -2.9499    2.5507   57.3976 H       1  ZINC000470948647    0.1400
     41 H41        -0.7335    1.9914   60.7703 H       1  ZINC000470948647    0.1100
     42 H42        -0.3396   -0.2597   59.8078 H       1  ZINC000470948647    0.0800
     43 H43         1.4134    0.0487   59.8040 H       1  ZINC000470948647    0.0800
     44 H44        -0.3843    0.0243   62.2708 H       1  ZINC000470948647    0.0700
     45 H45         0.7455   -1.2669   61.7969 H       1  ZINC000470948647    0.0800
     46 H46         1.7566    0.2171   63.5069 H       1  ZINC000470948647    0.0700
     47 H47         2.6376    0.3272   61.9642 H       1  ZINC000470948647    0.0700
     48 H48         0.4906    2.2697   62.9305 H       1  ZINC000470948647    0.0700
     49 H49         2.2436    2.5781   62.9267 H       1  ZINC000470948647    0.0700
     50 H50         2.2883    2.2941   60.4637 H       1  ZINC000470948647    0.0700
     51 H51         1.1585    3.5854   60.9375 H       1  ZINC000470948647    0.0700
     52 H52         1.6206    0.9439   57.9353 H       1  ZINC000470948647    0.1800
     53 H53         0.8977    2.2307   55.7368 H       1  ZINC000470948647    0.1600
     54 H54        -5.6891    4.3904   51.8318 H       1  ZINC000470948647    0.0700
     55 H55        -6.0318    2.7125   51.3468 H       1  ZINC000470948647    0.0700
     56 H56        -5.4204    3.0590   52.9822 H       1  ZINC000470948647    0.0600
     57 H57        -4.5475    2.7836   49.4264 H       1  ZINC000470948647    0.1300
@<TRIPOS>BOND
     1     1     2    1
     2     1    31    1
     3     1    32    1
     4     1    33    1
     5     2    30   ar
     6     2     3   ar
     7     3     4   ar
     8     3    34    1
     9     4     5   ar
    10     4    35    1
    11     5     6    1
    12     5    28   ar
    13     6     7   am
    14     6    36    1
    15     7     8    2
    16     7     9    1
    17     9    10    1
    18     9    14    1
    19     9    11    1
    20    11    12    1
    21    11    37    1
    22    11    38    1
    23    12    13    1
    24    13    14    1
    25    13    39    1
    26    13    40    1
    27    14    15   am
    28    15    16    2
    29    15    17    1
    30    17    27    1
    31    17    18    2
    32    18    19    1
    33    19    20    1
    34    19    26    1
    35    20    25    1
    36    20    21    1
    37    20    41    1
    38    21    22    1
    39    21    42    1
    40    21    43    1
    41    22    23    1
    42    22    44    1
    43    22    45    1
    44    23    24    1
    45    23    46    1
    46    23    47    1
    47    24    25    1
    48    24    48    1
    49    24    49    1
    50    25    50    1
    51    25    51    1
    52    26    27    2
    53    26    52    1
    54    27    53    1
    55    28    29    1
    56    28    30   ar
    57    29    54    1
    58    29    55    1
    59    29    56    1
    60    30    57    1
@<TRIPOS>SUBSTRUCTURE
     1 ZINC000470948647        1 TEMP              0 ****  ****    0 ROOT


##########                                Name:    ZINC000432833246
##########                DOCK_Rotatable_Bonds:                   5
##########                         Heavy_Atoms:                  25
##########                    Molecular_Weight:             400.318
##########                DOCK_Rotatable_Bonds:                   5
##########                       Formal_Charge:        -3.20375e-07
##########                     HBond_Acceptors:                   4
##########                        HBond_Donors:                   1
##########                         Heavy_Atoms:                  25
##########                          Grid_Score:          -30.743750
##########                     Grid_vdw_energy:          -30.919132
##########                      Grid_es_energy:            0.175383
##########           Internal_energy_repulsive:            8.669772

@<TRIPOS>MOLECULE
ZINC000432833246
 47 51 1 0 0
SMALL
USER_CHARGES


@<TRIPOS>ATOM
      1 O1         -1.1527    2.9635   59.7503 O.2     1  ZINC000432833246   -0.5200
      2 C2         -1.1398    3.0945   58.5446 C.2     1  ZINC000432833246    0.5200
      3 C3         -2.2008    3.8119   57.7395 C.3     1  ZINC000432833246   -0.1500
      4 C4         -1.5307    4.0646   56.3691 C.3     1  ZINC000432833246   -0.1100
      5 H5         -1.0615    5.0481   56.3399 H       1  ZINC000432833246    0.1000
      6 C6         -2.5393    3.9082   55.2293 C.3     1  ZINC000432833246    0.1300
      7 N7         -1.8670    4.1355   53.9476 N.pl3   1  ZINC000432833246   -0.7200
      8 C8         -2.4235    3.6448   52.7762 C.ar    1  ZINC000432833246    0.2800
      9 C9         -1.6374    3.4682   51.6126 C.ar    1  ZINC000432833246   -0.1500
     10 C10        -0.2710    3.7812   51.6008 C.ar    1  ZINC000432833246   -0.0700
     11 C11         0.4527    3.5971   50.4612 C.ar    1  ZINC000432833246   -0.1300
     12 C12        -0.1478    3.1020   49.3064 C.ar    1  ZINC000432833246   -0.0600
     13 C13        -1.4731    2.7879   49.2838 C.ar    1  ZINC000432833246   -0.0800
     14 Br14       -2.2625    2.1166   47.7019 Br      1  ZINC000432833246   -0.0300
     15 C15        -2.2517    2.9642   50.4416 C.ar    1  ZINC000432833246    0.1900
     16 N16        -3.5552    2.6634   50.4475 N.ar    1  ZINC000432833246   -0.5000
     17 C17        -4.2946    2.8225   51.5206 C.ar    1  ZINC000432833246    0.2400
     18 C18        -5.7572    2.4647   51.4616 C.3     1  ZINC000432833246   -0.1100
     19 C19        -6.3688    2.2173   50.0812 C.3     1  ZINC000432833246   -0.1700
     20 C20        -6.1198    1.0425   51.0292 C.3     1  ZINC000432833246   -0.1600
     21 C21        -3.7660    3.3062   52.7094 C.ar    1  ZINC000432833246   -0.2700
     22 C22        -0.4686    2.9438   56.3263 C.3     1  ZINC000432833246    0.1100
     23 N23        -0.1777    2.6283   57.7298 N.am    1  ZINC000432833246   -0.5900
     24 C24         1.0048    1.8921   58.1836 C.3     1  ZINC000432833246    0.0800
     25 C25         2.2143    1.8518   57.2475 C.3     1  ZINC000432833246   -0.1900
     26 C26         2.2577    2.7043   58.5172 C.3     1  ZINC000432833246   -0.1900
     27 H27        -3.0823    3.1815   57.6226 H       1  ZINC000432833246    0.1100
     28 H28        -2.4663    4.7564   58.2144 H       1  ZINC000432833246    0.1000
     29 H29        -2.9550    2.9007   55.2478 H       1  ZINC000432833246    0.0800
     30 H30        -3.3423    4.6350   55.3524 H       1  ZINC000432833246    0.0700
     31 H31        -1.0327    4.6294   53.9185 H       1  ZINC000432833246    0.4000
     32 H32         0.2054    4.1665   52.4902 H       1  ZINC000432833246    0.1300
     33 H33         1.5054    3.8386   50.4532 H       1  ZINC000432833246    0.1400
     34 H34         0.4462    2.9653   48.4150 H       1  ZINC000432833246    0.1400
     35 H35        -6.3878    2.9379   52.2143 H       1  ZINC000432833246    0.1300
     36 H36        -7.4019    2.5280   49.9254 H       1  ZINC000432833246    0.1000
     37 H37        -5.7133    2.3133   49.2157 H       1  ZINC000432833246    0.1000
     38 H38        -5.3003    0.3657   50.7874 H       1  ZINC000432833246    0.0900
     39 H39        -6.9890    0.5804   51.4971 H       1  ZINC000432833246    0.1000
     40 H40        -4.3994    3.4259   53.5758 H       1  ZINC000432833246    0.1400
     41 H41        -0.8653    2.0677   55.8133 H       1  ZINC000432833246    0.0800
     42 H42         0.4334    3.2978   55.8272 H       1  ZINC000432833246    0.0900
     43 H43         0.8045    1.0059   58.7858 H       1  ZINC000432833246    0.1300
     44 H44         2.8098    0.9390   57.2334 H       1  ZINC000432833246    0.1000
     45 H45         2.1302    2.3731   56.2939 H       1  ZINC000432833246    0.1300
     46 H46         2.2023    3.7865   58.3990 H       1  ZINC000432833246    0.0900
     47 H47         2.8819    2.3523   59.3386 H       1  ZINC000432833246    0.1000
@<TRIPOS>BOND
     1     1     2    2
     2     2    23   am
     3     2     3    1
     4     3     4    1
     5     3    27    1
     6     3    28    1
     7     4     5    1
     8     4     6    1
     9     4    22    1
    10     6     7    1
    11     6    29    1
    12     6    30    1
    13     7     8    1
    14     7    31    1
    15     8    21   ar
    16     8     9   ar
    17     9    15   ar
    18     9    10   ar
    19    10    11   ar
    20    10    32    1
    21    11    12   ar
    22    11    33    1
    23    12    13   ar
    24    12    34    1
    25    13    14    1
    26    13    15   ar
    27    15    16   ar
    28    16    17   ar
    29    17    18    1
    30    17    21   ar
    31    18    20    1
    32    18    19    1
    33    18    35    1
    34    19    20    1
    35    19    36    1
    36    19    37    1
    37    20    38    1
    38    20    39    1
    39    21    40    1
    40    22    23    1
    41    22    41    1
    42    22    42    1
    43    23    24    1
    44    24    26    1
    45    24    25    1
    46    24    43    1
    47    25    26    1
    48    25    44    1
    49    25    45    1
    50    26    46    1
    51    26    47    1
@<TRIPOS>SUBSTRUCTURE
     1 ZINC000432833246        1 TEMP              0 ****  ****    0 ROOT


##########                                Name:    ZINC000740930783
##########                DOCK_Rotatable_Bonds:                  11
##########                         Heavy_Atoms:                  27
##########                    Molecular_Weight:             413.257
##########                DOCK_Rotatable_Bonds:                  11
##########                       Formal_Charge:          -0.0100004
##########                     HBond_Acceptors:                   9
##########                        HBond_Donors:                   4
##########                         Heavy_Atoms:                  27
##########                          Grid_Score:          -30.710159
##########                     Grid_vdw_energy:          -28.444197
##########                      Grid_es_energy:           -2.265963
##########           Internal_energy_repulsive:           12.205656

@<TRIPOS>MOLECULE
ZINC000740930783
 45 46 1 0 0
SMALL
USER_CHARGES


@<TRIPOS>ATOM
      1 C1         -5.0039    4.8021   51.3381 C.3     1  ZINC000740930783    0.0200
      2 O2         -4.1742    3.6592   51.1200 O.3     1  ZINC000740930783   -0.3000
      3 C3         -2.9729    3.6375   51.7573 C.ar    1  ZINC000740930783    0.1200
      4 C4         -2.9216    3.4810   53.1287 C.ar    1  ZINC000740930783   -0.1400
      5 C5         -1.6858    3.4586   53.7809 C.ar    1  ZINC000740930783   -0.0800
      6 C6         -1.6258    3.2912   55.2463 C.2     1  ZINC000740930783    0.5600
      7 O7         -2.2002    4.0795   55.9722 O.2     1  ZINC000740930783   -0.5300
      8 N8         -0.9343    2.2646   55.7795 N.am    1  ZINC000740930783   -0.7200
      9 C9         -0.8734    2.0994   57.2339 C.3     1  ZINC000740930783    0.0900
     10 C10         0.3361    2.8587   57.7832 C.3     1  ZINC000740930783    0.1400
     11 H11         0.3715    3.8543   57.3409 H       1  ZINC000740930783    0.1200
     12 O12         1.5326    2.1493   57.4560 O.3     1  ZINC000740930783   -0.5500
     13 C13         0.2165    2.9783   59.2806 C.ar    1  ZINC000740930783   -0.1100
     14 C14        -0.2314    1.9043   60.0261 C.ar    1  ZINC000740930783   -0.1000
     15 C15        -0.3411    2.0138   61.4001 C.ar    1  ZINC000740930783   -0.1100
     16 C16        -0.0037    3.1977   62.0286 C.ar    1  ZINC000740930783   -0.1000
     17 C17         0.4444    4.2727   61.2840 C.ar    1  ZINC000740930783   -0.1100
     18 C18         0.5603    4.1616   59.9100 C.ar    1  ZINC000740930783   -0.0300
     19 Cl19        1.1230    5.5112   58.9742 Cl      1  ZINC000740930783   -0.0600
     20 C20        -0.5074    3.5946   53.0434 C.ar    1  ZINC000740930783   -0.1000
     21 C21        -0.5654    3.7505   51.6741 C.ar    1  ZINC000740930783   -0.0200
     22 Cl22        0.8999    3.9187   50.7586 Cl      1  ZINC000740930783   -0.0300
     23 C23        -1.7935    3.7674   51.0258 C.ar    1  ZINC000740930783    0.0900
     24 O24        -1.8459    3.9211   49.6773 O.3     1  ZINC000740930783   -0.2900
     25 C25        -1.3370    2.8487   48.8818 C.3     1  ZINC000740930783    0.0400
     26 C26        -2.4604    2.2373   48.0848 C.2     1  ZINC000740930783    0.5200
     27 N27        -2.2069    1.6688   46.8893 N.am    1  ZINC000740930783   -0.8500
     28 O28        -3.5925    2.2568   48.5191 O.2     1  ZINC000740930783   -0.5100
     29 H29        -5.2342    4.8865   52.4002 H       1  ZINC000740930783    0.0600
     30 H30        -4.4807    5.6994   51.0074 H       1  ZINC000740930783    0.0600
     31 H31        -5.9295    4.6922   50.7731 H       1  ZINC000740930783    0.1100
     32 H32        -3.8346    3.3766   53.6960 H       1  ZINC000740930783    0.1600
     33 H33        -0.4771    1.6350   55.2003 H       1  ZINC000740930783    0.4100
     34 H34        -1.7847    2.4943   57.6829 H       1  ZINC000740930783    0.0900
     35 H35        -0.7783    1.0409   57.4757 H       1  ZINC000740930783    0.0800
     36 H36         1.6191    1.2965   57.9036 H       1  ZINC000740930783    0.3800
     37 H37        -0.4959    0.9794   59.5354 H       1  ZINC000740930783    0.1300
     38 H38        -0.6912    1.1743   61.9823 H       1  ZINC000740930783    0.1300
     39 H39        -0.0903    3.2830   63.1018 H       1  ZINC000740930783    0.1400
     40 H40         0.7081    5.1976   61.7753 H       1  ZINC000740930783    0.1400
     41 H41         0.4488    3.5779   53.5451 H       1  ZINC000740930783    0.1500
     42 H42        -0.5751    3.2304   48.2020 H       1  ZINC000740930783    0.0900
     43 H43        -0.8979    2.0912   49.5311 H       1  ZINC000740930783    0.0900
     44 H44        -2.9298    1.2743   46.3768 H       1  ZINC000740930783    0.4000
     45 H45        -1.3015    1.6544   46.5414 H       1  ZINC000740930783    0.4100
@<TRIPOS>BOND
     1     1     2    1
     2     1    29    1
     3     1    30    1
     4     1    31    1
     5     2     3    1
     6     3    23   ar
     7     3     4   ar
     8     4     5   ar
     9     4    32    1
    10     5     6    1
    11     5    20   ar
    12     6     7    2
    13     6     8   am
    14     8     9    1
    15     8    33    1
    16     9    10    1
    17     9    34    1
    18     9    35    1
    19    10    11    1
    20    10    12    1
    21    10    13    1
    22    12    36    1
    23    13    18   ar
    24    13    14   ar
    25    14    15   ar
    26    14    37    1
    27    15    16   ar
    28    15    38    1
    29    16    17   ar
    30    16    39    1
    31    17    18   ar
    32    17    40    1
    33    18    19    1
    34    20    21   ar
    35    20    41    1
    36    21    22    1
    37    21    23   ar
    38    23    24    1
    39    24    25    1
    40    25    26    1
    41    25    42    1
    42    25    43    1
    43    26    27   am
    44    26    28    2
    45    27    44    1
    46    27    45    1
@<TRIPOS>SUBSTRUCTURE
     1 ZINC000740930783        1 TEMP              0 ****  ****    0 ROOT


##########                                Name:    ZINC001579482641
##########                DOCK_Rotatable_Bonds:                   5
##########                         Heavy_Atoms:                  26
##########                    Molecular_Weight:             355.359
##########                DOCK_Rotatable_Bonds:                   5
##########                       Formal_Charge:                0.05
##########                     HBond_Acceptors:                  11
##########                        HBond_Donors:                   1
##########                         Heavy_Atoms:                  26
##########                          Grid_Score:          -30.697159
##########                     Grid_vdw_energy:          -28.830936
##########                      Grid_es_energy:           -1.866223
##########           Internal_energy_repulsive:           14.555006

@<TRIPOS>MOLECULE
ZINC001579482641
 43 46 1 0 0
SMALL
USER_CHARGES


@<TRIPOS>ATOM
      1 C1         -7.1852   -0.1853   51.7655 C.3     1  ZINC001579482641    0.0300
      2 O2         -6.2080    0.5148   50.9509 O.3     1  ZINC001579482641   -0.3300
      3 C3         -5.9419    1.7940   51.2793 C.2     1  ZINC001579482641    0.5300
      4 O4         -6.8082    2.4867   51.7748 O.2     1  ZINC001579482641   -0.4900
      5 C5         -4.5966    2.3544   51.0368 C.ar    1  ZINC001579482641    0.0900
      6 C6         -3.9467    3.0519   52.0565 C.ar    1  ZINC001579482641   -0.0800
      7 C7         -2.6875    3.5746   51.8244 C.ar    1  ZINC001579482641   -0.1200
      8 C8         -2.1090    3.3845   50.5717 C.ar    1  ZINC001579482641    0.1100
      9 N9         -0.8466    3.8917   50.2957 N.3     1  ZINC001579482641   -0.4600
     10 C10        -0.8277    5.3714   50.4232 C.3     1  ZINC001579482641    0.0400
     11 C11         0.6765    5.6920   50.6102 C.3     1  ZINC001579482641   -0.1100
     12 C12         1.1733    4.5200   51.4875 C.3     1  ZINC001579482641   -0.0100
     13 H13         1.1914    4.8143   52.5369 H       1  ZINC001579482641    0.0900
     14 C14         2.5448    4.0800   51.0446 C.2     1  ZINC001579482641    0.1800
     15 N15         3.1423    4.4122   49.9328 N.2     1  ZINC001579482641   -0.2600
     16 N16         4.3011    3.8572   49.8815 N.2     1  ZINC001579482641   -0.2900
     17 C17         4.4957    3.1457   50.9583 C.2     1  ZINC001579482641    0.1500
     18 N18         3.3887    3.2709   51.7295 N.pl3   1  ZINC001579482641   -0.4800
     19 C19         3.1492    2.6503   53.0348 C.3     1  ZINC001579482641    0.0700
     20 C20         0.1500    3.3906   51.2668 C.3     1  ZINC001579482641    0.0600
     21 C21        -2.8203    2.6720   49.5913 C.ar    1  ZINC001579482641    0.2300
     22 C22        -2.2171    2.4616   48.2524 C.2     1  ZINC001579482641    0.2100
     23 N23        -1.3855    3.2715   47.6271 N.2     1  ZINC001579482641   -0.2600
     24 N24        -1.0908    2.7351   46.4930 N.pl3   1  ZINC001579482641   -0.2300
     25 N25        -1.7089    1.6116   46.3795 N.2     1  ZINC001579482641   -0.0500
     26 N26        -2.4069    1.4080   47.4450 N.2     1  ZINC001579482641   -0.2000
     27 N27        -4.0190    2.1835   49.8533 N.ar    1  ZINC001579482641   -0.4000
     28 H28        -8.1414    0.3353   51.7135 H       1  ZINC001579482641    0.0700
     29 H29        -7.3051   -1.2032   51.3944 H       1  ZINC001579482641    0.1100
     30 H30        -6.8426   -0.2136   52.7998 H       1  ZINC001579482641    0.0700
     31 H31        -4.4228    3.1824   53.0172 H       1  ZINC001579482641    0.1600
     32 H32        -2.1645    4.1184   52.5972 H       1  ZINC001579482641    0.1600
     33 H33        -1.2114    5.8406   49.5171 H       1  ZINC001579482641    0.1000
     34 H34        -1.4003    5.6897   51.2943 H       1  ZINC001579482641    0.0600
     35 H35         1.1915    5.7001   49.6496 H       1  ZINC001579482641    0.1000
     36 H36         0.8068    6.6429   51.1269 H       1  ZINC001579482641    0.0800
     37 H37         5.3772    2.5676   51.1929 H       1  ZINC001579482641    0.2200
     38 H38         3.5061    3.3130   53.8231 H       1  ZINC001579482641    0.0800
     39 H39         2.0810    2.4752   53.1634 H       1  ZINC001579482641    0.0900
     40 H40         3.6821    1.7010   53.0891 H       1  ZINC001579482641    0.0900
     41 H41        -0.3404    3.1446   52.2087 H       1  ZINC001579482641    0.0600
     42 H42         0.6502    2.5098   50.8645 H       1  ZINC001579482641    0.1000
     43 H43        -0.4967    3.1181   45.8287 H       1  ZINC001579482641    0.4800
@<TRIPOS>BOND
     1     1     2    1
     2     1    28    1
     3     1    29    1
     4     1    30    1
     5     2     3    1
     6     3     4    2
     7     3     5    1
     8     5    27   ar
     9     5     6   ar
    10     6     7   ar
    11     6    31    1
    12     7     8   ar
    13     7    32    1
    14     8     9    1
    15     8    21   ar
    16     9    20    1
    17     9    10    1
    18    10    11    1
    19    10    33    1
    20    10    34    1
    21    11    12    1
    22    11    35    1
    23    11    36    1
    24    12    13    1
    25    12    14    1
    26    12    20    1
    27    14    18    1
    28    14    15    2
    29    15    16    1
    30    16    17    2
    31    17    18    1
    32    17    37    1
    33    18    19    1
    34    19    38    1
    35    19    39    1
    36    19    40    1
    37    20    41    1
    38    20    42    1
    39    21    22    1
    40    21    27   ar
    41    22    26    1
    42    22    23    2
    43    23    24    1
    44    24    25    1
    45    24    43    1
    46    25    26    2
@<TRIPOS>SUBSTRUCTURE
     1 ZINC001579482641        1 TEMP              0 ****  ****    0 ROOT


##########                                Name:    ZINC000433533595
##########                DOCK_Rotatable_Bonds:                  10
##########                         Heavy_Atoms:                  24
##########                    Molecular_Weight:             397.312
##########                DOCK_Rotatable_Bonds:                  10
##########                       Formal_Charge:          0.00999916
##########                     HBond_Acceptors:                   5
##########                        HBond_Donors:                   1
##########                         Heavy_Atoms:                  24
##########                          Grid_Score:          -30.694664
##########                     Grid_vdw_energy:          -29.558708
##########                      Grid_es_energy:           -1.135955
##########           Internal_energy_repulsive:           18.595676

@<TRIPOS>MOLECULE
ZINC000433533595
 49 50 1 0 0
SMALL
USER_CHARGES


@<TRIPOS>ATOM
      1 C1         -5.2271    3.2974   52.0253 C.3     1  ZINC000433533595   -0.1500
      2 C2         -3.8827    3.9578   52.3371 C.3     1  ZINC000433533595   -0.1200
      3 C3         -2.8409    3.5020   51.3135 C.3     1  ZINC000433533595   -0.1300
      4 C4         -3.1960    4.0687   49.9374 C.3     1  ZINC000433533595    0.1000
      5 N5         -2.1458    3.7167   48.9785 N.am    1  ZINC000433533595   -0.5500
      6 C6         -2.1154    2.4838   48.4349 C.2     1  ZINC000433533595    0.5100
      7 O7         -2.9579    1.6653   48.7398 O.2     1  ZINC000433533595   -0.5100
      8 C8         -1.0449    2.1249   47.4575 C.2     1  ZINC000433533595    0.5000
      9 O9         -1.3428    1.7206   46.3523 O.2     1  ZINC000433533595   -0.4900
     10 N10         0.2520    2.2499   47.8023 N.am    1  ZINC000433533595   -0.6300
     11 C11         1.2546    1.9138   46.8869 C.ar    1  ZINC000433533595    0.1200
     12 C12         1.5564    2.7722   45.8393 C.ar    1  ZINC000433533595   -0.0600
     13 C13         2.5482    2.4374   44.9356 C.ar    1  ZINC000433533595   -0.1100
     14 Br14        2.9587    3.6085   43.5088 Br      1  ZINC000433533595   -0.0400
     15 C15         3.2410    1.2480   45.0734 C.ar    1  ZINC000433533595   -0.0600
     16 C16         2.9456    0.3878   46.1150 C.ar    1  ZINC000433533595   -0.1900
     17 C17         1.9576    0.7182   47.0277 C.ar    1  ZINC000433533595    0.1300
     18 O18         1.6663   -0.1270   48.0524 O.3     1  ZINC000433533595   -0.3100
     19 C19         2.6510   -0.2662   49.0785 C.3     1  ZINC000433533595    0.0800
     20 C20         2.2379    0.5613   50.2973 C.3     1  ZINC000433533595   -0.1500
     21 C21         2.7673   -1.7387   49.4774 C.3     1  ZINC000433533595   -0.1800
     22 C22        -1.1287    4.7048   48.6105 C.3     1  ZINC000433533595    0.0600
     23 C23        -0.8879    5.8648   49.5786 C.3     1  ZINC000433533595   -0.1900
     24 C24         0.1501    4.7482   49.4494 C.3     1  ZINC000433533595   -0.1800
     25 H25        -5.1197    2.2138   52.0741 H       1  ZINC000433533595    0.0500
     26 H26        -5.9693    3.6222   52.7545 H       1  ZINC000433533595    0.0500
     27 H27        -5.5502    3.5859   51.0250 H       1  ZINC000433533595    0.0500
     28 H28        -3.9901    5.0414   52.2883 H       1  ZINC000433533595    0.0700
     29 H29        -3.5596    3.6694   53.3375 H       1  ZINC000433533595    0.0600
     30 H30        -1.8565    3.8624   51.6119 H       1  ZINC000433533595    0.0600
     31 H31        -2.8302    2.4131   51.2662 H       1  ZINC000433533595    0.0700
     32 H32        -4.1460    3.6496   49.6059 H       1  ZINC000433533595    0.1100
     33 H33        -3.2802    5.1535   50.0019 H       1  ZINC000433533595    0.0800
     34 H34         0.4900    2.5729   48.6855 H       1  ZINC000433533595    0.4300
     35 H35         1.0167    3.7012   45.7295 H       1  ZINC000433533595    0.1600
     36 H36         4.0146    0.9903   44.3651 H       1  ZINC000433533595    0.1400
     37 H37         3.4885   -0.5400   46.2194 H       1  ZINC000433533595    0.1500
     38 H38         3.6136    0.0872   48.7087 H       1  ZINC000433533595    0.0800
     39 H39         1.2754    0.2079   50.6671 H       1  ZINC000433533595    0.0700
     40 H40         2.9890    0.4551   51.0801 H       1  ZINC000433533595    0.0800
     41 H41         2.1551    1.6103   50.0132 H       1  ZINC000433533595    0.0700
     42 H42         1.8047   -2.0920   49.8471 H       1  ZINC000433533595    0.0700
     43 H43         3.0615   -2.3282   48.6090 H       1  ZINC000433533595    0.0600
     44 H44         3.5183   -1.8448   50.2601 H       1  ZINC000433533595    0.0800
     45 H45        -1.0384    4.9118   47.5442 H       1  ZINC000433533595    0.1400
     46 H46        -0.6393    6.8353   49.1493 H       1  ZINC000433533595    0.0900
     47 H47        -1.4862    5.8927   50.4894 H       1  ZINC000433533595    0.1400
     48 H48         0.2347    4.0416   50.2750 H       1  ZINC000433533595    0.1000
     49 H49         1.0817    4.9842   48.9350 H       1  ZINC000433533595    0.1000
@<TRIPOS>BOND
     1     1     2    1
     2     1    25    1
     3     1    26    1
     4     1    27    1
     5     2     3    1
     6     2    28    1
     7     2    29    1
     8     3     4    1
     9     3    30    1
    10     3    31    1
    11     4     5    1
    12     4    32    1
    13     4    33    1
    14     5     6   am
    15     5    22    1
    16     6     7    2
    17     6     8    1
    18     8     9    2
    19     8    10   am
    20    10    11    1
    21    10    34    1
    22    11    17   ar
    23    11    12   ar
    24    12    13   ar
    25    12    35    1
    26    13    14    1
    27    13    15   ar
    28    15    16   ar
    29    15    36    1
    30    16    17   ar
    31    16    37    1
    32    17    18    1
    33    18    19    1
    34    19    20    1
    35    19    21    1
    36    19    38    1
    37    20    39    1
    38    20    40    1
    39    20    41    1
    40    21    42    1
    41    21    43    1
    42    21    44    1
    43    22    24    1
    44    22    23    1
    45    22    45    1
    46    23    24    1
    47    23    46    1
    48    23    47    1
    49    24    48    1
    50    24    49    1
@<TRIPOS>SUBSTRUCTURE
     1 ZINC000433533595        1 TEMP              0 ****  ****    0 ROOT


##########                                Name:    ZINC000426037318
##########                DOCK_Rotatable_Bonds:                   7
##########                         Heavy_Atoms:                  28
##########                    Molecular_Weight:             421.904
##########                DOCK_Rotatable_Bonds:                   7
##########                       Formal_Charge:         -0.00999981
##########                     HBond_Acceptors:                   9
##########                        HBond_Donors:                   1
##########                         Heavy_Atoms:                  28
##########                          Grid_Score:          -30.687202
##########                     Grid_vdw_energy:          -29.316311
##########                      Grid_es_energy:           -1.370892
##########           Internal_energy_repulsive:           19.639406

@<TRIPOS>MOLECULE
ZINC000426037318
 48 50 1 0 0
SMALL
USER_CHARGES


@<TRIPOS>ATOM
      1 C1          0.1170    3.4492   45.8458 C.3     1  ZINC000426037318    0.0300
      2 O2          0.0436    2.2196   46.5702 O.3     1  ZINC000426037318   -0.3800
      3 C3         -1.2791    1.6916   46.6868 C.3     1  ZINC000426037318    0.1300
      4 C4         -1.8716    2.1079   48.0083 C.ar    1  ZINC000426037318    0.3900
      5 N5         -1.0769    2.6169   48.9326 N.ar    1  ZINC000426037318   -0.5700
      6 C6         -1.5460    2.9983   50.1086 C.ar    1  ZINC000426037318    0.4400
      7 O7         -0.7167    3.5182   51.0433 O.3     1  ZINC000426037318   -0.2800
      8 C8          0.6821    3.4999   50.7517 C.3     1  ZINC000426037318    0.0300
      9 C9         -2.9343    2.8544   50.3758 C.ar    1  ZINC000426037318   -0.2000
     10 C10        -3.6675    3.1771   51.5235 C.2     1  ZINC000426037318    0.0500
     11 C11        -3.0237    3.7778   52.7466 C.3     1  ZINC000426037318   -0.1200
     12 C12        -4.9791    2.9167   51.4616 C.2     1  ZINC000426037318   -0.2700
     13 C13        -5.9338    3.1751   52.5467 C.2     1  ZINC000426037318    0.6000
     14 O14        -6.1481    4.3168   52.9094 O.2     1  ZINC000426037318   -0.5000
     15 N15        -6.5728    2.1480   53.1410 N.am    1  ZINC000426037318   -0.6600
     16 C16        -7.4836    2.3946   54.1762 C.ar    1  ZINC000426037318    0.1200
     17 C17        -7.0725    3.0706   55.3166 C.ar    1  ZINC000426037318   -0.0700
     18 C18        -7.9713    3.3138   56.3370 C.ar    1  ZINC000426037318   -0.0900
     19 C19        -7.5247    4.0482   57.5748 C.3     1  ZINC000426037318   -0.1100
     20 C20        -9.2847    2.8829   56.2226 C.ar    1  ZINC000426037318    0.1300
     21 O21       -10.1686    3.1233   57.2275 O.3     1  ZINC000426037318   -0.3100
     22 C22       -11.4776    2.5678   57.0869 C.3     1  ZINC000426037318    0.0200
     23 C23        -9.6974    2.2071   55.0834 C.ar    1  ZINC000426037318   -0.1800
     24 C24        -8.8012    1.9676   54.0596 C.ar    1  ZINC000426037318   -0.0300
     25 Cl25       -9.3173    1.1225   52.6336 Cl      1  ZINC000426037318   -0.0600
     26 S26        -5.4008    2.2242   49.9048 S.3     1  ZINC000426037318    0.2200
     27 C27        -3.7313    2.3084   49.3592 C.ar    1  ZINC000426037318    0.1300
     28 N28        -3.1619    1.9576   48.2011 N.ar    1  ZINC000426037318   -0.5000
     29 H29         1.1535    3.7837   45.8019 H       1  ZINC000426037318    0.0900
     30 H30        -0.2591    3.2978   44.8340 H       1  ZINC000426037318    0.0500
     31 H31        -0.4875    4.2040   46.3489 H       1  ZINC000426037318    0.0500
     32 H32        -1.8965    2.0756   45.8747 H       1  ZINC000426037318    0.0900
     33 H33        -1.2421    0.6036   46.6318 H       1  ZINC000426037318    0.0800
     34 H34         0.8712    4.0705   49.8425 H       1  ZINC000426037318    0.0700
     35 H35         1.2320    3.9450   51.5810 H       1  ZINC000426037318    0.1100
     36 H36         1.0102    2.4702   50.6093 H       1  ZINC000426037318    0.0700
     37 H37        -3.0384    4.8649   52.6680 H       1  ZINC000426037318    0.0900
     38 H38        -3.5747    3.4703   53.6353 H       1  ZINC000426037318    0.1000
     39 H39        -1.9925    3.4328   52.8209 H       1  ZINC000426037318    0.0800
     40 H40        -6.4020    1.2380   52.8517 H       1  ZINC000426037318    0.4100
     41 H41        -6.0498    3.4060   55.4064 H       1  ZINC000426037318    0.1600
     42 H42        -7.6725    5.1190   57.4353 H       1  ZINC000426037318    0.0700
     43 H43        -8.1100    3.7089   58.4295 H       1  ZINC000426037318    0.0700
     44 H44        -6.4686    3.8476   57.7552 H       1  ZINC000426037318    0.0700
     45 H45       -11.9451    2.9630   56.1850 H       1  ZINC000426037318    0.0600
     46 H46       -11.4059    1.4827   57.0135 H       1  ZINC000426037318    0.0600
     47 H47       -12.0805    2.8341   57.9551 H       1  ZINC000426037318    0.1000
     48 H48       -10.7203    1.8719   54.9951 H       1  ZINC000426037318    0.1500
@<TRIPOS>BOND
     1     1     2    1
     2     1    29    1
     3     1    30    1
     4     1    31    1
     5     2     3    1
     6     3     4    1
     7     3    32    1
     8     3    33    1
     9     4    28   ar
    10     4     5   ar
    11     5     6   ar
    12     6     7    1
    13     6     9   ar
    14     7     8    1
    15     8    34    1
    16     8    35    1
    17     8    36    1
    18     9    27   ar
    19     9    10    1
    20    10    11    1
    21    10    12    2
    22    11    37    1
    23    11    38    1
    24    11    39    1
    25    12    13    1
    26    12    26    1
    27    13    14    2
    28    13    15   am
    29    15    16    1
    30    15    40    1
    31    16    24   ar
    32    16    17   ar
    33    17    18   ar
    34    17    41    1
    35    18    19    1
    36    18    20   ar
    37    19    42    1
    38    19    43    1
    39    19    44    1
    40    20    21    1
    41    20    23   ar
    42    21    22    1
    43    22    45    1
    44    22    46    1
    45    22    47    1
    46    23    24   ar
    47    23    48    1
    48    24    25    1
    49    26    27    1
    50    27    28   ar
@<TRIPOS>SUBSTRUCTURE
     1 ZINC000426037318        1 TEMP              0 ****  ****    0 ROOT


##########                                Name:    ZINC001078110631
##########                DOCK_Rotatable_Bonds:                   7
##########                         Heavy_Atoms:                  25
##########                    Molecular_Weight:             353.369
##########                DOCK_Rotatable_Bonds:                   7
##########                       Formal_Charge:           0.0100006
##########                     HBond_Acceptors:                   8
##########                        HBond_Donors:                   2
##########                         Heavy_Atoms:                  25
##########                          Grid_Score:          -30.663685
##########                     Grid_vdw_energy:          -27.241751
##########                      Grid_es_energy:           -3.421933
##########           Internal_energy_repulsive:            4.944970

@<TRIPOS>MOLECULE
ZINC001078110631
 46 48 1 0 0
SMALL
USER_CHARGES


@<TRIPOS>ATOM
      1 O1         -2.5773    5.2745   53.3199 O.2     1  ZINC001078110631   -0.5100
      2 C2         -2.1211    4.1728   53.0815 C.2     1  ZINC001078110631    0.5600
      3 N3         -1.4873    3.4820   54.0498 N.am    1  ZINC001078110631   -0.7200
      4 C4         -1.3427    4.0608   55.3878 C.3     1  ZINC001078110631    0.1500
      5 H5         -1.1192    5.1253   55.3170 H       1  ZINC001078110631    0.1200
      6 C6         -0.2306    3.3304   56.1706 C.3     1  ZINC001078110631    0.0300
      7 N7         -0.7328    3.2718   57.5676 N.3     1  ZINC001078110631   -0.5000
      8 C8         -0.0601    2.2077   58.3246 C.3     1  ZINC001078110631    0.0300
      9 C9         -0.5624    2.2143   59.7698 C.3     1  ZINC001078110631    0.1300
     10 N10         0.2802    1.3346   60.5837 N.am    1  ZINC001078110631   -0.6200
     11 C11         0.0044   -0.0869   60.8231 C.3     1  ZINC001078110631    0.1000
     12 C12         1.3337   -0.6838   61.3362 C.3     1  ZINC001078110631   -0.1300
     13 C13         2.0229    0.5589   61.9458 C.3     1  ZINC001078110631   -0.1600
     14 C14         1.4081    1.7243   61.2024 C.2     1  ZINC001078110631    0.5200
     15 O15         1.8627    2.8483   61.1746 O.2     1  ZINC001078110631   -0.5200
     16 C16        -2.1834    2.9863   57.4222 C.3     1  ZINC001078110631    0.0000
     17 C17        -2.6284    3.8368   56.2102 C.3     1  ZINC001078110631    0.1000
     18 H18        -3.3667    3.2956   55.6185 H       1  ZINC001078110631    0.0700
     19 O19        -3.1655    5.0858   56.6507 O.3     1  ZINC001078110631   -0.5500
     20 C20        -2.2668    3.5898   51.7337 C.ar    1  ZINC001078110631   -0.1900
     21 C21        -1.1340    3.2503   50.9902 C.ar    1  ZINC001078110631   -0.0300
     22 C22        -1.2756    2.7062   49.7323 C.ar    1  ZINC001078110631   -0.1700
     23 C23        -2.5399    2.4947   49.2021 C.ar    1  ZINC001078110631    0.1600
     24 F24        -2.6710    1.9609   47.9679 F       1  ZINC001078110631   -0.1200
     25 C25        -3.6687    2.8281   49.9327 C.ar    1  ZINC001078110631   -0.2000
     26 C26        -3.5404    3.3695   51.1974 C.ar    1  ZINC001078110631    0.2000
     27 F27        -4.6412    3.6946   51.9099 F       1  ZINC001078110631   -0.1000
     28 H28        -1.1270    2.6014   53.8607 H       1  ZINC001078110631    0.4000
     29 H29        -0.0859    2.3246   55.7762 H       1  ZINC001078110631    0.0500
     30 H30         0.7004    3.8953   56.1247 H       1  ZINC001078110631    0.1000
     31 H31        -0.2795    1.2426   57.8680 H       1  ZINC001078110631    0.0400
     32 H32         1.0163    2.3787   58.3134 H       1  ZINC001078110631    0.0800
     33 H33        -0.5173    3.2289   60.1656 H       1  ZINC001078110631    0.0900
     34 H34        -1.5925    1.8589   59.7980 H       1  ZINC001078110631    0.0800
     35 H35        -0.7748   -0.1982   61.5770 H       1  ZINC001078110631    0.0700
     36 H36        -0.2948   -0.5746   59.8954 H       1  ZINC001078110631    0.0800
     37 H37         1.1526   -1.4422   62.0977 H       1  ZINC001078110631    0.0900
     38 H38         1.9214   -1.0915   60.5136 H       1  ZINC001078110631    0.0800
     39 H39         1.8109    0.6277   63.0129 H       1  ZINC001078110631    0.1100
     40 H40         3.0982    0.5232   61.7710 H       1  ZINC001078110631    0.1000
     41 H41        -2.3443    1.9268   57.2237 H       1  ZINC001078110631    0.0600
     42 H42        -2.7228    3.2922   58.3187 H       1  ZINC001078110631    0.0900
     43 H43        -3.9083    5.0001   57.2638 H       1  ZINC001078110631    0.3800
     44 H44        -0.1486    3.4142   51.4006 H       1  ZINC001078110631    0.1500
     45 H45        -0.3999    2.4440   49.1574 H       1  ZINC001078110631    0.1500
     46 H46        -4.6505    2.6613   49.5147 H       1  ZINC001078110631    0.1600
@<TRIPOS>BOND
     1     1     2    2
     2     2     3   am
     3     2    20    1
     4     3     4    1
     5     3    28    1
     6     4     5    1
     7     4    17    1
     8     4     6    1
     9     6     7    1
    10     6    29    1
    11     6    30    1
    12     7     8    1
    13     7    16    1
    14     8     9    1
    15     8    31    1
    16     8    32    1
    17     9    10    1
    18     9    33    1
    19     9    34    1
    20    10    14   am
    21    10    11    1
    22    11    12    1
    23    11    35    1
    24    11    36    1
    25    12    13    1
    26    12    37    1
    27    12    38    1
    28    13    14    1
    29    13    39    1
    30    13    40    1
    31    14    15    2
    32    16    17    1
    33    16    41    1
    34    16    42    1
    35    17    18    1
    36    17    19    1
    37    19    43    1
    38    20    26   ar
    39    20    21   ar
    40    21    22   ar
    41    21    44    1
    42    22    23   ar
    43    22    45    1
    44    23    24    1
    45    23    25   ar
    46    25    26   ar
    47    25    46    1
    48    26    27    1
@<TRIPOS>SUBSTRUCTURE
     1 ZINC001078110631        1 TEMP              0 ****  ****    0 ROOT


##########                                Name:    ZINC000110375116
##########                DOCK_Rotatable_Bonds:                  10
##########                         Heavy_Atoms:                  27
##########                    Molecular_Weight:             396.511
##########                DOCK_Rotatable_Bonds:                  10
##########                       Formal_Charge:        -2.23517e-07
##########                     HBond_Acceptors:                   9
##########                        HBond_Donors:                   0
##########                         Heavy_Atoms:                  27
##########                          Grid_Score:          -30.642384
##########                     Grid_vdw_energy:          -29.385551
##########                      Grid_es_energy:           -1.256833
##########           Internal_energy_repulsive:           33.364979

@<TRIPOS>MOLECULE
ZINC000110375116
 55 56 1 0 0
SMALL
USER_CHARGES


@<TRIPOS>ATOM
      1 C1          2.8087   -0.5566   60.5430 C.3     1  ZINC000110375116   -0.1700
      2 C2          2.6880    0.7137   59.6986 C.3     1  ZINC000110375116    0.1000
      3 N3          3.2027    0.4553   58.3515 N.am    1  ZINC000110375116   -0.6200
      4 C4          3.8545   -0.8212   58.0488 C.3     1  ZINC000110375116    0.1100
      5 C5          5.3553   -0.7052   58.3227 C.3     1  ZINC000110375116   -0.1700
      6 C6          3.0766    1.3921   57.3908 C.2     1  ZINC000110375116    0.5100
      7 O7          3.5013    1.1776   56.2752 O.2     1  ZINC000110375116   -0.5300
      8 C8          2.4077    2.7060   57.7027 C.3     1  ZINC000110375116   -0.1400
      9 C9          0.9171    2.6109   57.3709 C.3     1  ZINC000110375116   -0.0900
     10 C10         0.6572    3.2494   56.0049 C.3     1  ZINC000110375116   -0.1400
     11 C11        -0.7906    3.6564   55.9081 C.2     1  ZINC000110375116    0.5200
     12 O12        -1.5462    3.4335   56.8303 O.2     1  ZINC000110375116   -0.5300
     13 N13        -1.2459    4.2680   54.7967 N.am    1  ZINC000110375116   -0.6200
     14 C14        -0.3428    4.5405   53.6697 C.3     1  ZINC000110375116    0.0900
     15 C15        -0.9383    3.9151   52.4022 C.3     1  ZINC000110375116    0.1000
     16 N16        -2.3467    4.3210   52.2955 N.am    1  ZINC000110375116   -1.0000
     17 S17        -2.9063    5.0715   50.9294 S.o2    1  ZINC000110375116    2.7000
     18 O18        -4.3140    5.1884   51.0839 O.2     1  ZINC000110375116   -0.9400
     19 O19        -2.0536    6.1860   50.7061 O.2     1  ZINC000110375116   -0.9500
     20 C20        -2.6438    3.9664   49.5824 C.ar    1  ZINC000110375116   -0.7400
     21 C21        -1.5950    4.1725   48.6996 C.ar    1  ZINC000110375116    0.0200
     22 C22        -1.4263    3.2769   47.6544 C.ar    1  ZINC000110375116   -0.1900
     23 C23        -2.3030    2.2162   47.5285 C.ar    1  ZINC000110375116    0.1500
     24 N24        -3.2900    2.0512   48.3874 N.ar    1  ZINC000110375116   -0.4900
     25 C25        -3.4774    2.8797   49.3959 C.ar    1  ZINC000110375116    0.2000
     26 C26        -3.2498    4.0485   53.4224 C.3     1  ZINC000110375116    0.1000
     27 C27        -2.6556    4.6689   54.6877 C.3     1  ZINC000110375116    0.1000
     28 H28         2.4258   -0.3644   61.5453 H       1  ZINC000110375116    0.0700
     29 H29         2.2307   -1.3566   60.0804 H       1  ZINC000110375116    0.0600
     30 H30         3.8556   -0.8537   60.6048 H       1  ZINC000110375116    0.0600
     31 H31         1.6411    1.0107   59.6368 H       1  ZINC000110375116    0.0800
     32 H32         3.2661    1.5136   60.1612 H       1  ZINC000110375116    0.0800
     33 H33         3.4300   -1.6041   58.6773 H       1  ZINC000110375116    0.0800
     34 H34         3.6947   -1.0711   56.9999 H       1  ZINC000110375116    0.0800
     35 H35         5.8403   -1.6550   58.0975 H       1  ZINC000110375116    0.0700
     36 H36         5.7798    0.0776   57.6941 H       1  ZINC000110375116    0.0500
     37 H37         5.5149   -0.4555   59.3716 H       1  ZINC000110375116    0.0600
     38 H38         2.5304    2.9338   58.7615 H       1  ZINC000110375116    0.0900
     39 H39         2.8632    3.4963   57.1059 H       1  ZINC000110375116    0.0900
     40 H40         0.6167    1.5635   57.3454 H       1  ZINC000110375116    0.0800
     41 H41         0.3411    3.1358   58.1328 H       1  ZINC000110375116    0.0800
     42 H42         1.2903    4.1289   55.8885 H       1  ZINC000110375116    0.1000
     43 H43         0.8858    2.5303   55.2183 H       1  ZINC000110375116    0.1000
     44 H44        -0.2421    5.6173   53.5338 H       1  ZINC000110375116    0.0800
     45 H45         0.6346    4.1015   53.8698 H       1  ZINC000110375116    0.1000
     46 H46        -0.3892    4.2659   51.5285 H       1  ZINC000110375116    0.1100
     47 H47        -0.8744    2.8288   52.4656 H       1  ZINC000110375116    0.0800
     48 H48        -0.9254    5.0109   48.8228 H       1  ZINC000110375116    0.1500
     49 H49        -0.6202    3.4069   46.9476 H       1  ZINC000110375116    0.1500
     50 H50        -2.1787    1.5145   46.7169 H       1  ZINC000110375116    0.1700
     51 H51        -4.2968    2.7122   50.0792 H       1  ZINC000110375116    0.1700
     52 H52        -4.2273    4.4875   53.2224 H       1  ZINC000110375116    0.1100
     53 H53        -3.3505    2.9717   53.5584 H       1  ZINC000110375116    0.0800
     54 H54        -3.2056    4.3172   55.5606 H       1  ZINC000110375116    0.1100
     55 H55        -2.7177    5.7554   54.6263 H       1  ZINC000110375116    0.0800
@<TRIPOS>BOND
     1     1     2    1
     2     1    28    1
     3     1    29    1
     4     1    30    1
     5     2     3    1
     6     2    31    1
     7     2    32    1
     8     3     4    1
     9     3     6   am
    10     4     5    1
    11     4    33    1
    12     4    34    1
    13     5    35    1
    14     5    36    1
    15     5    37    1
    16     6     7    2
    17     6     8    1
    18     8     9    1
    19     8    38    1
    20     8    39    1
    21     9    10    1
    22     9    40    1
    23     9    41    1
    24    10    11    1
    25    10    42    1
    26    10    43    1
    27    11    12    2
    28    11    13   am
    29    13    27    1
    30    13    14    1
    31    14    15    1
    32    14    44    1
    33    14    45    1
    34    15    16    1
    35    15    46    1
    36    15    47    1
    37    16    17   am
    38    16    26    1
    39    17    18    2
    40    17    19    2
    41    17    20    1
    42    20    25   ar
    43    20    21   ar
    44    21    22   ar
    45    21    48    1
    46    22    23   ar
    47    22    49    1
    48    23    24   ar
    49    23    50    1
    50    24    25   ar
    51    25    51    1
    52    26    27    1
    53    26    52    1
    54    26    53    1
    55    27    54    1
    56    27    55    1
@<TRIPOS>SUBSTRUCTURE
     1 ZINC000110375116        1 TEMP              0 ****  ****    0 ROOT


##########                                Name:    ZINC001065334255
##########                DOCK_Rotatable_Bonds:                   7
##########                         Heavy_Atoms:                  23
##########                    Molecular_Weight:             346.448
##########                DOCK_Rotatable_Bonds:                   7
##########                       Formal_Charge:        -5.81145e-07
##########                     HBond_Acceptors:                   8
##########                        HBond_Donors:                   1
##########                         Heavy_Atoms:                  23
##########                          Grid_Score:          -30.634914
##########                     Grid_vdw_energy:          -29.337378
##########                      Grid_es_energy:           -1.297537
##########           Internal_energy_repulsive:           18.520323

@<TRIPOS>MOLECULE
ZINC001065334255
 49 50 1 0 0
SMALL
USER_CHARGES


@<TRIPOS>ATOM
      1 C1         -1.6034    3.7173   58.5009 C.3     1  ZINC001065334255   -0.1500
      2 C2         -0.5846    3.2292   57.4691 C.3     1  ZINC001065334255   -0.0800
      3 C3          0.2371    2.0847   58.0657 C.3     1  ZINC001065334255   -0.1500
      4 C4         -1.3193    2.7333   56.2219 C.3     1  ZINC001065334255   -0.1400
      5 C5         -1.4533    3.8641   55.2349 C.2     1  ZINC001065334255    0.5100
      6 O6         -1.5588    5.0056   55.6312 O.2     1  ZINC001065334255   -0.5300
      7 N7         -1.4561    3.6071   53.9119 N.am    1  ZINC001065334255   -0.7300
      8 C8         -1.5846    4.7067   52.9524 C.3     1  ZINC001065334255    0.1300
      9 C9         -2.4579    4.2595   51.7783 C.3     1  ZINC001065334255    0.0700
     10 H10        -2.5774    5.0861   51.0779 H       1  ZINC001065334255    0.0700
     11 C11        -1.7915    3.0771   51.0658 C.3     1  ZINC001065334255    0.0800
     12 N12        -2.7320    2.5482   50.0653 N.am    1  ZINC001065334255   -0.6100
     13 C13        -2.3468    2.3462   48.7897 C.2     1  ZINC001065334255    0.5400
     14 O14        -3.1367    1.9089   47.9797 O.2     1  ZINC001065334255   -0.5200
     15 C15        -0.9348    2.6634   48.3697 C.3     1  ZINC001065334255   -0.1100
     16 H16        -0.2378    2.3739   49.1560 H       1  ZINC001065334255    0.1200
     17 C17        -0.7987    4.1671   48.0722 C.3     1  ZINC001065334255   -0.1000
     18 C18         0.5309    4.4057   47.3294 C.3     1  ZINC001065334255   -0.5900
     19 S19         0.8668    2.8428   46.4404 S.o2    1  ZINC001065334255    2.3900
     20 O20         0.7337    3.0584   45.0421 O.2     1  ZINC001065334255   -0.9300
     21 O21         2.0525    2.2532   46.9559 O.2     1  ZINC001065334255   -0.9300
     22 C22        -0.5916    1.9173   47.0546 C.3     1  ZINC001065334255   -0.5900
     23 C23        -4.1053    2.2458   50.4989 C.3     1  ZINC001065334255    0.0600
     24 C24        -4.6590    3.4688   51.2389 C.3     1  ZINC001065334255    0.0500
     25 O25        -3.7404    3.8557   52.2638 O.3     1  ZINC001065334255   -0.3700
     26 H26        -1.0801    4.0705   59.3894 H       1  ZINC001065334255    0.0600
     27 H27        -2.1889    4.5327   58.0759 H       1  ZINC001065334255    0.0500
     28 H28        -2.2673    2.8965   58.7725 H       1  ZINC001065334255    0.0600
     29 H29         0.0792    4.0499   57.1975 H       1  ZINC001065334255    0.0800
     30 H30        -0.4267    1.2639   58.3373 H       1  ZINC001065334255    0.0500
     31 H31         0.9629    1.7370   57.3306 H       1  ZINC001065334255    0.0700
     32 H32         0.7604    2.4379   58.9541 H       1  ZINC001065334255    0.0500
     33 H33        -0.7548    1.9192   55.7673 H       1  ZINC001065334255    0.0900
     34 H34        -2.3103    2.3761   56.5021 H       1  ZINC001065334255    0.0900
     35 H35        -1.3729    2.6941   53.5950 H       1  ZINC001065334255    0.4000
     36 H36        -2.0457    5.5643   53.4422 H       1  ZINC001065334255    0.0900
     37 H37        -0.5970    4.9856   52.5851 H       1  ZINC001065334255    0.0800
     38 H38        -0.8798    3.4127   50.5714 H       1  ZINC001065334255    0.1100
     39 H39        -1.5513    2.2995   51.7911 H       1  ZINC001065334255    0.0900
     40 H40        -1.6307    4.4940   47.4485 H       1  ZINC001065334255    0.1000
     41 H41        -0.8019    4.7274   49.0071 H       1  ZINC001065334255    0.1000
     42 H42         0.4270    5.2287   46.6222 H       1  ZINC001065334255    0.1500
     43 H43         1.3296    4.6156   48.0409 H       1  ZINC001065334255    0.1400
     44 H44        -0.3336    0.8772   47.2547 H       1  ZINC001065334255    0.1400
     45 H45        -1.4177    1.9827   46.3466 H       1  ZINC001065334255    0.1500
     46 H46        -4.7260    2.0311   49.6289 H       1  ZINC001065334255    0.1000
     47 H47        -4.0981    1.3845   51.1669 H       1  ZINC001065334255    0.0900
     48 H48        -4.7873    4.2922   50.5363 H       1  ZINC001065334255    0.0600
     49 H49        -5.6204    3.2185   51.6873 H       1  ZINC001065334255    0.1100
@<TRIPOS>BOND
     1     1     2    1
     2     1    26    1
     3     1    27    1
     4     1    28    1
     5     2     3    1
     6     2     4    1
     7     2    29    1
     8     3    30    1
     9     3    31    1
    10     3    32    1
    11     4     5    1
    12     4    33    1
    13     4    34    1
    14     5     6    2
    15     5     7   am
    16     7     8    1
    17     7    35    1
    18     8     9    1
    19     8    36    1
    20     8    37    1
    21     9    10    1
    22     9    25    1
    23     9    11    1
    24    11    12    1
    25    11    38    1
    26    11    39    1
    27    12    13   am
    28    12    23    1
    29    13    14    2
    30    13    15    1
    31    15    16    1
    32    15    22    1
    33    15    17    1
    34    17    18    1
    35    17    40    1
    36    17    41    1
    37    18    19    1
    38    18    42    1
    39    18    43    1
    40    19    20    2
    41    19    21    2
    42    19    22    1
    43    22    44    1
    44    22    45    1
    45    23    24    1
    46    23    46    1
    47    23    47    1
    48    24    25    1
    49    24    48    1
    50    24    49    1
@<TRIPOS>SUBSTRUCTURE
     1 ZINC001065334255        1 TEMP              0 ****  ****    0 ROOT


##########                                Name:    ZINC000373715094
##########                DOCK_Rotatable_Bonds:                   6
##########                         Heavy_Atoms:                  27
##########                    Molecular_Weight:             362.431
##########                DOCK_Rotatable_Bonds:                   6
##########                       Formal_Charge:           0.0299999
##########                     HBond_Acceptors:                   6
##########                        HBond_Donors:                   2
##########                         Heavy_Atoms:                  27
##########                          Grid_Score:          -30.632822
##########                     Grid_vdw_energy:          -29.417318
##########                      Grid_es_energy:           -1.215504
##########           Internal_energy_repulsive:            7.678456

@<TRIPOS>MOLECULE
ZINC000373715094
 49 52 1 0 0
SMALL
USER_CHARGES


@<TRIPOS>ATOM
      1 C1          2.4043    1.6281   47.1904 C.3     1  ZINC000373715094    0.0900
      2 N2          1.0158    2.0953   47.1854 N.am    1  ZINC000373715094   -0.6100
      3 C3         -0.0489    1.3072   46.9573 C.2     1  ZINC000373715094    0.5200
      4 O4          0.0045    0.1187   46.7215 O.2     1  ZINC000373715094   -0.5200
      5 C5         -1.3234    2.1182   47.0377 C.3     1  ZINC000373715094   -0.1600
      6 C6         -0.8997    3.4200   47.7567 C.3     1  ZINC000373715094   -0.1000
      7 H7         -1.4253    4.2816   47.3451 H       1  ZINC000373715094    0.1100
      8 C8         -1.1289    3.3118   49.2656 C.3     1  ZINC000373715094    0.1300
      9 N9         -2.5090    3.6907   49.5782 N.am    1  ZINC000373715094   -0.7300
     10 C10        -3.0213    3.4250   50.7962 C.2     1  ZINC000373715094    0.5200
     11 O11        -2.3393    2.8735   51.6338 O.2     1  ZINC000373715094   -0.5200
     12 C12        -4.4417    3.8132   51.1172 C.3     1  ZINC000373715094   -0.0600
     13 C13        -5.2941    2.5734   51.2024 C.2     1  ZINC000373715094    0.1200
     14 N14        -5.1292    1.4798   50.5146 N.2     1  ZINC000373715094   -0.2300
     15 N15        -6.1094    0.5432   50.8587 N.pl3   1  ZINC000373715094   -0.5100
     16 C16        -6.9301    1.0840   51.8139 C.ar    1  ZINC000373715094    0.1300
     17 C17        -8.0441    0.6161   52.5058 C.ar    1  ZINC000373715094   -0.1400
     18 C18        -8.6609    1.4184   53.4237 C.ar    1  ZINC000373715094   -0.0700
     19 C19        -8.1911    2.7009   53.6777 C.ar    1  ZINC000373715094   -0.1600
     20 C20        -7.1012    3.1863   53.0146 C.ar    1  ZINC000373715094   -0.0400
     21 C21        -6.4481    2.3815   52.0749 C.ar    1  ZINC000373715094   -0.1600
     22 C22         0.6082    3.4830   47.4352 C.3     1  ZINC000373715094    0.1800
     23 H23         1.1574    3.8957   48.2814 H       1  ZINC000373715094    0.1000
     24 C24         0.8443    4.3186   46.2035 C.ar    1  ZINC000373715094   -0.1000
     25 C25         1.1603    5.6585   46.3274 C.ar    1  ZINC000373715094   -0.1000
     26 C26         1.3768    6.4249   45.1975 C.ar    1  ZINC000373715094   -0.1200
     27 C27         1.2779    5.8512   43.9437 C.ar    1  ZINC000373715094   -0.1100
     28 C28         0.9629    4.5109   43.8198 C.ar    1  ZINC000373715094   -0.1200
     29 C29         0.7505    3.7436   44.9498 C.ar    1  ZINC000373715094   -0.1100
     30 H30         2.6771    1.3102   48.1967 H       1  ZINC000373715094    0.0600
     31 H31         2.5074    0.7879   46.5036 H       1  ZINC000373715094    0.0800
     32 H32         3.0615    2.4383   46.8745 H       1  ZINC000373715094    0.0700
     33 H33        -1.6988    2.3390   46.0387 H       1  ZINC000373715094    0.1100
     34 H34        -2.0766    1.5883   47.6208 H       1  ZINC000373715094    0.1100
     35 H35        -0.9521    2.2854   49.5872 H       1  ZINC000373715094    0.0700
     36 H36        -0.4420    3.9791   49.7861 H       1  ZINC000373715094    0.0800
     37 H37        -3.0541    4.1329   48.9087 H       1  ZINC000373715094    0.4000
     38 H38        -4.4679    4.3385   52.0719 H       1  ZINC000373715094    0.1200
     39 H39        -4.8262    4.4653   50.3330 H       1  ZINC000373715094    0.1200
     40 H40        -6.1949   -0.3464   50.4815 H       1  ZINC000373715094    0.4400
     41 H41        -8.4199   -0.3788   52.3173 H       1  ZINC000373715094    0.1300
     42 H42        -9.5247    1.0512   53.9581 H       1  ZINC000373715094    0.1300
     43 H43        -8.6932    3.3199   54.4066 H       1  ZINC000373715094    0.1300
     44 H44        -6.7421    4.1844   53.2178 H       1  ZINC000373715094    0.1300
     45 H45         1.2375    6.1068   47.3069 H       1  ZINC000373715094    0.1200
     46 H46         1.6230    7.4721   45.2943 H       1  ZINC000373715094    0.1200
     47 H47         1.4464    6.4502   43.0609 H       1  ZINC000373715094    0.1200
     48 H48         0.8852    4.0629   42.8403 H       1  ZINC000373715094    0.1300
     49 H49         0.5043    2.6965   44.8530 H       1  ZINC000373715094    0.1300
@<TRIPOS>BOND
     1     1     2    1
     2     1    30    1
     3     1    31    1
     4     1    32    1
     5     2    22    1
     6     2     3   am
     7     3     4    2
     8     3     5    1
     9     5     6    1
    10     5    33    1
    11     5    34    1
    12     6     7    1
    13     6     8    1
    14     6    22    1
    15     8     9    1
    16     8    35    1
    17     8    36    1
    18     9    10   am
    19     9    37    1
    20    10    11    2
    21    10    12    1
    22    12    13    1
    23    12    38    1
    24    12    39    1
    25    13    21    1
    26    13    14    2
    27    14    15    1
    28    15    16    1
    29    15    40    1
    30    16    21   ar
    31    16    17   ar
    32    17    18   ar
    33    17    41    1
    34    18    19   ar
    35    18    42    1
    36    19    20   ar
    37    19    43    1
    38    20    21   ar
    39    20    44    1
    40    22    23    1
    41    22    24    1
    42    24    29   ar
    43    24    25   ar
    44    25    26   ar
    45    25    45    1
    46    26    27   ar
    47    26    46    1
    48    27    28   ar
    49    27    47    1
    50    28    29   ar
    51    28    48    1
    52    29    49    1
@<TRIPOS>SUBSTRUCTURE
     1 ZINC000373715094        1 TEMP              0 ****  ****    0 ROOT


##########                                Name:    ZINC000655235556
##########                DOCK_Rotatable_Bonds:                   6
##########                         Heavy_Atoms:                  23
##########                    Molecular_Weight:             336.778
##########                DOCK_Rotatable_Bonds:                   6
##########                       Formal_Charge:         -0.00999996
##########                     HBond_Acceptors:                   8
##########                        HBond_Donors:                   2
##########                         Heavy_Atoms:                  23
##########                          Grid_Score:          -30.605434
##########                     Grid_vdw_energy:          -29.650585
##########                      Grid_es_energy:           -0.954850
##########           Internal_energy_repulsive:            7.579969

@<TRIPOS>MOLECULE
ZINC000655235556
 40 42 1 0 0
SMALL
USER_CHARGES


@<TRIPOS>ATOM
      1 C1         -5.6206    1.5392   50.1215 C.3     1  ZINC000655235556    0.0200
      2 O2         -4.2100    1.6385   49.9156 O.3     1  ZINC000655235556   -0.2700
      3 C3         -3.6372    2.8461   50.1477 C.ar    1  ZINC000655235556    0.2000
      4 C4         -4.0750    3.6331   51.2014 C.ar    1  ZINC000655235556   -0.2100
      5 C5         -3.4899    4.8633   51.4369 C.ar    1  ZINC000655235556    0.0300
      6 Cl6        -4.0433    5.8436   52.7584 Cl      1  ZINC000655235556   -0.0500
      7 C7         -2.4631    5.3183   50.6236 C.ar    1  ZINC000655235556   -0.1600
      8 C8         -2.0164    4.5482   49.5722 C.ar    1  ZINC000655235556   -0.0300
      9 C9         -2.5959    3.3010   49.3264 C.ar    1  ZINC000655235556   -0.1700
     10 C10        -2.1218    2.4718   48.2027 C.2     1  ZINC000655235556    0.5700
     11 O11        -2.9233    1.9086   47.4821 O.2     1  ZINC000655235556   -0.5100
     12 N12        -0.8002    2.3382   47.9744 N.am    1  ZINC000655235556   -0.7300
     13 C13        -0.3293    1.5160   46.8570 C.3     1  ZINC000655235556    0.2100
     14 C14         1.0746    1.0451   47.1366 C.2     1  ZINC000655235556    0.2600
     15 N15         1.4058   -0.0254   47.8120 N.2     1  ZINC000655235556   -0.5100
     16 C16         2.7327   -0.1350   47.8632 C.2     1  ZINC000655235556    0.2200
     17 C17         3.4943   -1.2379   48.5522 C.3     1  ZINC000655235556    0.1700
     18 H18         2.9751   -2.1865   48.4160 H       1  ZINC000655235556    0.1100
     19 C19         3.6241   -0.9232   50.0580 C.3     1  ZINC000655235556   -0.1400
     20 C20         5.0703   -1.3957   50.3700 C.3     1  ZINC000655235556   -0.1500
     21 C21         5.7854   -1.0524   49.0390 C.3     1  ZINC000655235556    0.0500
     22 O22         4.8175   -1.3262   48.0110 O.3     1  ZINC000655235556   -0.3700
     23 N23         3.2666    0.8689   47.2185 N.2     1  ZINC000655235556   -0.2800
     24 N24         2.2052    1.6487   46.7309 N.pl3   1  ZINC000655235556   -0.4700
     25 H25        -5.8543    1.7797   51.1586 H       1  ZINC000655235556    0.0600
     26 H26        -6.1342    2.2387   49.4618 H       1  ZINC000655235556    0.0600
     27 H27        -5.9494    0.5236   49.9010 H       1  ZINC000655235556    0.1100
     28 H28        -4.8742    3.2850   51.8389 H       1  ZINC000655235556    0.1500
     29 H29        -2.0119    6.2806   50.8151 H       1  ZINC000655235556    0.1400
     30 H30        -1.2166    4.9066   48.9411 H       1  ZINC000655235556    0.1400
     31 H31        -0.1609    2.7866   48.5498 H       1  ZINC000655235556    0.4000
     32 H32        -0.9851    0.6533   46.7391 H       1  ZINC000655235556    0.1000
     33 H33        -0.3387    2.1073   45.9414 H       1  ZINC000655235556    0.1100
     34 H34         3.5172    0.1459   50.2415 H       1  ZINC000655235556    0.0800
     35 H35         2.8967   -1.4920   50.6372 H       1  ZINC000655235556    0.0900
     36 H36         5.4963   -0.8339   51.2012 H       1  ZINC000655235556    0.0900
     37 H37         5.0995   -2.4674   50.5667 H       1  ZINC000655235556    0.0800
     38 H38         6.0687   -0.0000   49.0222 H       1  ZINC000655235556    0.0600
     39 H39         6.6642   -1.6837   48.9080 H       1  ZINC000655235556    0.0900
     40 H40         2.2743    2.4642   46.2104 H       1  ZINC000655235556    0.4400
@<TRIPOS>BOND
     1     1     2    1
     2     1    25    1
     3     1    26    1
     4     1    27    1
     5     2     3    1
     6     3     9   ar
     7     3     4   ar
     8     4     5   ar
     9     4    28    1
    10     5     6    1
    11     5     7   ar
    12     7     8   ar
    13     7    29    1
    14     8     9   ar
    15     8    30    1
    16     9    10    1
    17    10    11    2
    18    10    12   am
    19    12    13    1
    20    12    31    1
    21    13    14    1
    22    13    32    1
    23    13    33    1
    24    14    24    1
    25    14    15    2
    26    15    16    1
    27    16    17    1
    28    16    23    2
    29    17    18    1
    30    17    22    1
    31    17    19    1
    32    19    20    1
    33    19    34    1
    34    19    35    1
    35    20    21    1
    36    20    36    1
    37    20    37    1
    38    21    22    1
    39    21    38    1
    40    21    39    1
    41    23    24    1
    42    24    40    1
@<TRIPOS>SUBSTRUCTURE
     1 ZINC000655235556        1 TEMP              0 ****  ****    0 ROOT


##########                                Name:    ZINC000555499135
##########                DOCK_Rotatable_Bonds:                   8
##########                         Heavy_Atoms:                  26
##########                    Molecular_Weight:             377.554
##########                DOCK_Rotatable_Bonds:                   8
##########                       Formal_Charge:           0.0399999
##########                     HBond_Acceptors:                   7
##########                        HBond_Donors:                   0
##########                         Heavy_Atoms:                  26
##########                          Grid_Score:          -30.578075
##########                     Grid_vdw_energy:          -29.047144
##########                      Grid_es_energy:           -1.530931
##########           Internal_energy_repulsive:           18.227297

@<TRIPOS>MOLECULE
ZINC000555499135
 57 59 1 0 0
SMALL
USER_CHARGES


@<TRIPOS>ATOM
      1 C1          0.7494    4.4938   44.8057 C.3     1  ZINC000555499135   -0.1500
      2 C2          0.2604    3.0745   45.1013 C.3     1  ZINC000555499135   -0.0500
      3 C3         -0.1970    2.9891   46.5346 C.2     1  ZINC000555499135   -0.2100
      4 C4         -1.1597    2.1914   47.0065 C.2     1  ZINC000555499135    0.0300
      5 N5         -1.3750    2.3020   48.3020 N.2     1  ZINC000555499135   -0.4500
      6 C6         -0.6473    3.1485   48.9490 C.2     1  ZINC000555499135    0.0400
      7 C7         -0.7446    3.4156   50.4290 C.3     1  ZINC000555499135    0.1500
      8 N8         -1.7154    4.4915   50.6696 N.3     1  ZINC000555499135   -0.4500
      9 C9         -1.7124    5.4599   49.5650 C.3     1  ZINC000555499135    0.0100
     10 C10        -2.9857    3.9775   50.8758 C.2     1  ZINC000555499135    0.3500
     11 N11        -3.6285    3.1475   50.0886 N.2     1  ZINC000555499135   -0.3100
     12 N12        -4.7823    2.8782   50.5868 N.2     1  ZINC000555499135   -0.2900
     13 C13        -4.9427    3.5151   51.7122 C.2     1  ZINC000555499135    0.2100
     14 C14        -6.1577    3.4638   52.6022 C.3     1  ZINC000555499135   -0.0300
     15 C15        -7.2676    2.6745   51.9051 C.3     1  ZINC000555499135   -0.0900
     16 C16        -7.0662    1.1791   52.1581 C.3     1  ZINC000555499135   -0.1500
     17 C17        -8.6265    3.1071   52.4593 C.3     1  ZINC000555499135   -0.1500
     18 N18        -3.8018    4.2340   51.9389 N.pl3   1  ZINC000555499135   -0.4600
     19 C19        -3.5181    5.1056   53.0816 C.3     1  ZINC000555499135    0.1100
     20 C20        -3.0720    4.2557   54.2729 C.3     1  ZINC000555499135    0.0700
     21 H21        -3.6359    3.3230   54.2855 H       1  ZINC000555499135    0.0700
     22 C22        -3.3272    5.0241   55.5723 C.3     1  ZINC000555499135   -0.1500
     23 C23        -2.8231    4.1923   56.7557 C.3     1  ZINC000555499135   -0.1200
     24 C24        -1.3384    3.8774   56.5486 C.3     1  ZINC000555499135   -0.1600
     25 C25        -1.1600    3.1533   55.2115 C.3     1  ZINC000555499135    0.0600
     26 O26        -1.6771    3.9677   54.1573 O.3     1  ZINC000555499135   -0.3700
     27 S27         0.4484    3.9178   47.8857 S.3     1  ZINC000555499135    0.1200
     28 H28        -0.0645    5.2000   44.9701 H       1  ZINC000555499135    0.0600
     29 H29         1.5807    4.7369   45.4674 H       1  ZINC000555499135    0.0600
     30 H30         1.0801    4.5556   43.7689 H       1  ZINC000555499135    0.0700
     31 H31        -0.5709    2.8314   44.4396 H       1  ZINC000555499135    0.0900
     32 H32         1.0742    2.3683   44.9368 H       1  ZINC000555499135    0.0800
     33 H33        -1.7158    1.5118   46.3778 H       1  ZINC000555499135    0.1800
     34 H34        -1.0712    2.5104   50.9409 H       1  ZINC000555499135    0.0800
     35 H35         0.2319    3.7157   50.8090 H       1  ZINC000555499135    0.1200
     36 H36        -2.0905    4.9816   48.6614 H       1  ZINC000555499135    0.0500
     37 H37        -2.3496    6.3062   49.8219 H       1  ZINC000555499135    0.0800
     38 H38        -0.6949    5.8106   49.3920 H       1  ZINC000555499135    0.0900
     39 H39        -5.8995    2.9751   53.5417 H       1  ZINC000555499135    0.1000
     40 H40        -6.5040    4.4776   52.8031 H       1  ZINC000555499135    0.1000
     41 H41        -7.2337    2.8694   50.8331 H       1  ZINC000555499135    0.0800
     42 H42        -6.0817    0.8792   51.7991 H       1  ZINC000555499135    0.0500
     43 H43        -7.1400    0.9783   53.2269 H       1  ZINC000555499135    0.0600
     44 H44        -7.8336    0.6144   51.6285 H       1  ZINC000555499135    0.0600
     45 H45        -8.7699    4.1725   52.2790 H       1  ZINC000555499135    0.0600
     46 H46        -9.4172    2.5448   51.9627 H       1  ZINC000555499135    0.0600
     47 H47        -8.6603    2.9122   53.5313 H       1  ZINC000555499135    0.0600
     48 H48        -2.7250    5.8050   52.8169 H       1  ZINC000555499135    0.1100
     49 H49        -4.4178    5.6604   53.3477 H       1  ZINC000555499135    0.1200
     50 H50        -2.7959    5.9754   55.5432 H       1  ZINC000555499135    0.0800
     51 H51        -4.3961    5.2059   55.6840 H       1  ZINC000555499135    0.0800
     52 H52        -2.9506    4.7571   57.6791 H       1  ZINC000555499135    0.0700
     53 H53        -3.3884    3.2621   56.8147 H       1  ZINC000555499135    0.0600
     54 H54        -0.7670    4.8055   56.5392 H       1  ZINC000555499135    0.0700
     55 H55        -0.9850    3.2390   57.3584 H       1  ZINC000555499135    0.0800
     56 H56        -0.1005    2.9647   55.0389 H       1  ZINC000555499135    0.1000
     57 H57        -1.6988    2.2061   55.2364 H       1  ZINC000555499135    0.0500
@<TRIPOS>BOND
     1     1     2    1
     2     1    28    1
     3     1    29    1
     4     1    30    1
     5     2     3    1
     6     2    31    1
     7     2    32    1
     8     3    27    1
     9     3     4    2
    10     4     5    1
    11     4    33    1
    12     5     6    2
    13     6     7    1
    14     6    27    1
    15     7     8    1
    16     7    34    1
    17     7    35    1
    18     8     9    1
    19     8    10    1
    20     9    36    1
    21     9    37    1
    22     9    38    1
    23    10    18    1
    24    10    11    2
    25    11    12    1
    26    12    13    2
    27    13    14    1
    28    13    18    1
    29    14    15    1
    30    14    39    1
    31    14    40    1
    32    15    16    1
    33    15    17    1
    34    15    41    1
    35    16    42    1
    36    16    43    1
    37    16    44    1
    38    17    45    1
    39    17    46    1
    40    17    47    1
    41    18    19    1
    42    19    20    1
    43    19    48    1
    44    19    49    1
    45    20    21    1
    46    20    26    1
    47    20    22    1
    48    22    23    1
    49    22    50    1
    50    22    51    1
    51    23    24    1
    52    23    52    1
    53    23    53    1
    54    24    25    1
    55    24    54    1
    56    24    55    1
    57    25    26    1
    58    25    56    1
    59    25    57    1
@<TRIPOS>SUBSTRUCTURE
     1 ZINC000555499135        1 TEMP              0 ****  ****    0 ROOT


##########                                Name:    ZINC001573443776
##########                DOCK_Rotatable_Bonds:                   8
##########                         Heavy_Atoms:                  28
##########                    Molecular_Weight:             386.457
##########                DOCK_Rotatable_Bonds:                   8
##########                       Formal_Charge:          0.00999954
##########                     HBond_Acceptors:                  10
##########                        HBond_Donors:                   3
##########                         Heavy_Atoms:                  28
##########                          Grid_Score:          -30.565834
##########                     Grid_vdw_energy:          -27.967937
##########                      Grid_es_energy:           -2.597897
##########           Internal_energy_repulsive:           31.098063

@<TRIPOS>MOLECULE
ZINC001573443776
 54 56 1 0 0
SMALL
USER_CHARGES


@<TRIPOS>ATOM
      1 C1         -2.4240    3.1907   57.4800 C.3     1  ZINC001573443776   -0.1800
      2 C2         -1.2972    4.0849   57.0310 C.2     1  ZINC001573443776    0.5100
      3 O3         -0.4263    4.4023   57.8132 O.2     1  ZINC001573443776   -0.5400
      4 N4         -1.2573    4.5320   55.7602 N.am    1  ZINC001573443776   -0.6100
      5 C5         -0.1651    5.4044   55.3076 C.3     1  ZINC001573443776    0.1100
      6 C6         -0.7688    6.6647   54.6797 C.3     1  ZINC001573443776   -0.1300
      7 C7         -1.7490    6.2607   53.5762 C.3     1  ZINC001573443776   -0.1000
      8 C8         -2.8844    5.4302   54.1789 C.3     1  ZINC001573443776   -0.1200
      9 H9         -3.3922    6.0120   54.9481 H       1  ZINC001573443776    0.1000
     10 C10        -3.8665    5.0608   53.0972 C.2     1  ZINC001573443776    0.5200
     11 O11        -4.0266    5.7966   52.1465 O.2     1  ZINC001573443776   -0.5300
     12 N12        -4.5669    3.9128   53.1864 N.am    1  ZINC001573443776   -0.7300
     13 C13        -5.5204    3.5529   52.1339 C.3     1  ZINC001573443776    0.1100
     14 C14        -4.8341    2.6424   51.1137 C.3     1  ZINC001573443776    0.1400
     15 H15        -4.1409    1.9774   51.6287 H       1  ZINC001573443776    0.0900
     16 C16        -5.8892    1.8110   50.3811 C.3     1  ZINC001573443776   -0.1700
     17 N17        -4.0986    3.4603   50.1461 N.pl3   1  ZINC001573443776   -0.7200
     18 C18        -2.8458    3.0544   49.7037 C.ar    1  ZINC001573443776    0.4300
     19 C19        -1.7353    3.2382   50.5224 C.ar    1  ZINC001573443776   -0.2500
     20 C20        -0.4934    2.8316   50.0754 C.ar    1  ZINC001573443776    0.0100
     21 C21        -0.4011    2.2469   48.8078 C.ar    1  ZINC001573443776   -0.1400
     22 C22         0.9108    1.7930   48.2825 C.2     1  ZINC001573443776    0.2400
     23 N23         1.8181    2.5366   47.6811 N.2     1  ZINC001573443776   -0.3000
     24 N24         2.8131    1.7761   47.3773 N.pl3   1  ZINC001573443776   -0.2300
     25 N25         2.5651    0.5744   47.7669 N.2     1  ZINC001573443776   -0.0500
     26 N26         1.4061    0.5482   48.3324 N.2     1  ZINC001573443776   -0.2700
     27 C27        -1.5561    2.0962   48.0463 C.ar    1  ZINC001573443776    0.2300
     28 C28        -1.4711    1.4680   46.6791 C.3     1  ZINC001573443776   -0.1200
     29 N29        -2.7242    2.4926   48.5102 N.ar    1  ZINC001573443776   -0.5400
     30 C30        -2.3017    4.1513   54.7995 C.3     1  ZINC001573443776    0.1200
     31 H31        -3.2073    3.7951   57.9375 H       1  ZINC001573443776    0.0900
     32 H32        -2.8310    2.6591   56.6199 H       1  ZINC001573443776    0.0800
     33 H33        -2.0488    2.4711   58.2077 H       1  ZINC001573443776    0.1000
     34 H34         0.4572    5.6821   56.1582 H       1  ZINC001573443776    0.1000
     35 H35         0.4382    4.8801   54.5664 H       1  ZINC001573443776    0.0700
     36 H36        -1.2965    7.2351   55.4443 H       1  ZINC001573443776    0.0700
     37 H37         0.0270    7.2759   54.2538 H       1  ZINC001573443776    0.0800
     38 H38        -2.1615    7.1562   53.1112 H       1  ZINC001573443776    0.0800
     39 H39        -1.2261    5.6695   52.8245 H       1  ZINC001573443776    0.0700
     40 H40        -4.4398    3.3249   53.9473 H       1  ZINC001573443776    0.4000
     41 H41        -6.3685    3.0296   52.5753 H       1  ZINC001573443776    0.0900
     42 H42        -5.8705    4.4573   51.6361 H       1  ZINC001573443776    0.0800
     43 H43        -6.4365    1.2025   51.1010 H       1  ZINC001573443776    0.0700
     44 H44        -6.5825    2.4760   49.8660 H       1  ZINC001573443776    0.0700
     45 H45        -5.4003    1.1623   49.6543 H       1  ZINC001573443776    0.0700
     46 H46        -4.4863    4.2852   49.8144 H       1  ZINC001573443776    0.4100
     47 H47        -1.8434    3.6936   51.4957 H       1  ZINC001573443776    0.1400
     48 H48         0.3853    2.9622   50.6895 H       1  ZINC001573443776    0.1400
     49 H49         3.6218    2.0638   46.9256 H       1  ZINC001573443776    0.4800
     50 H50        -1.6043    0.3896   46.7657 H       1  ZINC001573443776    0.0800
     51 H51        -2.2524    1.8804   46.0406 H       1  ZINC001573443776    0.0800
     52 H52        -0.4953    1.6796   46.2420 H       1  ZINC001573443776    0.1100
     53 H53        -1.8741    3.5265   54.0152 H       1  ZINC001573443776    0.0800
     54 H54        -3.0900    3.6040   55.3164 H       1  ZINC001573443776    0.0900
@<TRIPOS>BOND
     1     1     2    1
     2     1    31    1
     3     1    32    1
     4     1    33    1
     5     2     3    2
     6     2     4   am
     7     4    30    1
     8     4     5    1
     9     5     6    1
    10     5    34    1
    11     5    35    1
    12     6     7    1
    13     6    36    1
    14     6    37    1
    15     7     8    1
    16     7    38    1
    17     7    39    1
    18     8     9    1
    19     8    10    1
    20     8    30    1
    21    10    11    2
    22    10    12   am
    23    12    13    1
    24    12    40    1
    25    13    14    1
    26    13    41    1
    27    13    42    1
    28    14    15    1
    29    14    16    1
    30    14    17    1
    31    16    43    1
    32    16    44    1
    33    16    45    1
    34    17    18    1
    35    17    46    1
    36    18    29   ar
    37    18    19   ar
    38    19    20   ar
    39    19    47    1
    40    20    21   ar
    41    20    48    1
    42    21    22    1
    43    21    27   ar
    44    22    26    1
    45    22    23    2
    46    23    24    1
    47    24    25    1
    48    24    49    1
    49    25    26    2
    50    27    28    1
    51    27    29   ar
    52    28    50    1
    53    28    51    1
    54    28    52    1
    55    30    53    1
    56    30    54    1
@<TRIPOS>SUBSTRUCTURE
     1 ZINC001573443776        1 TEMP              0 ****  ****    0 ROOT


##########                                Name:    ZINC000840464592
##########                DOCK_Rotatable_Bonds:                  10
##########                         Heavy_Atoms:                  26
##########                    Molecular_Weight:             360.497
##########                DOCK_Rotatable_Bonds:                  10
##########                       Formal_Charge:          -0.0399996
##########                     HBond_Acceptors:                   5
##########                        HBond_Donors:                   1
##########                         Heavy_Atoms:                  26
##########                          Grid_Score:          -30.563099
##########                     Grid_vdw_energy:          -30.685375
##########                      Grid_es_energy:            0.122277
##########           Internal_energy_repulsive:           79.413734

@<TRIPOS>MOLECULE
ZINC000840464592
 58 59 1 0 0
SMALL
USER_CHARGES


@<TRIPOS>ATOM
      1 C1         -9.0591    1.6700   60.4170 C.3     1  ZINC000840464592   -0.1500
      2 C2         -9.5476    1.4777   61.8542 C.3     1  ZINC000840464592   -0.1300
      3 C3         -9.8917    0.0046   62.0830 C.3     1  ZINC000840464592   -0.1200
      4 C4        -11.3611   -0.2364   61.7315 C.3     1  ZINC000840464592   -0.1200
      5 C5        -11.5538   -1.6969   61.3185 C.3     1  ZINC000840464592   -0.1200
      6 C6        -11.1968   -1.8601   59.8397 C.3     1  ZINC000840464592    0.0600
      7 O7        -11.7403   -3.0880   59.3511 O.3     1  ZINC000840464592   -0.3600
      8 C8        -11.5127   -3.3109   57.9580 C.3     1  ZINC000840464592    0.0800
      9 H9        -11.6888   -2.3860   57.4086 H       1  ZINC000840464592    0.0800
     10 C10       -10.0672   -3.7642   57.7435 C.3     1  ZINC000840464592   -0.1800
     11 C11       -12.4530   -4.3779   57.4598 C.2     1  ZINC000840464592    0.5200
     12 O12       -12.0545   -5.5128   57.3041 O.2     1  ZINC000840464592   -0.5000
     13 N13       -13.7367   -4.0712   57.1871 N.am    1  ZINC000840464592   -0.6000
     14 C14       -14.6444   -5.1088   56.7044 C.3     1  ZINC000840464592    0.0900
     15 C15       -15.1519   -4.7988   55.3006 C.3     1  ZINC000840464592   -0.1600
     16 C16       -15.9629   -3.5011   55.3073 C.3     1  ZINC000840464592    0.0800
     17 N17       -15.0575   -2.3689   55.0829 N.am    1  ZINC000840464592   -0.7200
     18 C18       -14.1964   -1.9886   56.0400 C.2     1  ZINC000840464592    0.5100
     19 O19       -13.4124   -1.0859   55.8356 O.2     1  ZINC000840464592   -0.5200
     20 C20       -14.2159   -2.6988   57.3826 C.3     1  ZINC000840464592    0.1400
     21 H21       -13.5617   -2.1778   58.0815 H       1  ZINC000840464592    0.1300
     22 C22       -15.6435   -2.7176   57.9325 C.3     1  ZINC000840464592   -0.1000
     23 C23       -15.6442   -2.1954   59.3461 C.ar    1  ZINC000840464592   -0.0900
     24 C24       -15.6992   -3.0778   60.4089 C.ar    1  ZINC000840464592   -0.1100
     25 C25       -15.6998   -2.5989   61.7056 C.ar    1  ZINC000840464592   -0.1200
     26 C26       -15.6450   -1.2376   61.9396 C.ar    1  ZINC000840464592   -0.1200
     27 C27       -15.5891   -0.3553   60.8769 C.ar    1  ZINC000840464592   -0.1200
     28 C28       -15.5842   -0.8345   59.5803 C.ar    1  ZINC000840464592   -0.1100
     29 H29        -9.8436    1.3681   59.7232 H       1  ZINC000840464592    0.0500
     30 H30        -8.8140    2.7195   60.2540 H       1  ZINC000840464592    0.0500
     31 H31        -8.1717    1.0595   60.2502 H       1  ZINC000840464592    0.0500
     32 H32        -8.7631    1.7797   62.5480 H       1  ZINC000840464592    0.0600
     33 H33       -10.4350    2.0883   62.0211 H       1  ZINC000840464592    0.0600
     34 H34        -9.2598   -0.6187   61.4503 H       1  ZINC000840464592    0.0600
     35 H35        -9.7220   -0.2498   63.1293 H       1  ZINC000840464592    0.0600
     36 H36       -11.9828   -0.0196   62.6002 H       1  ZINC000840464592    0.0600
     37 H37       -11.6491    0.4154   60.9068 H       1  ZINC000840464592    0.0600
     38 H38       -10.9056   -2.3334   61.9210 H       1  ZINC000840464592    0.0700
     39 H39       -12.5932   -1.9848   61.4752 H       1  ZINC000840464592    0.0700
     40 H40       -11.6119   -1.0275   59.2718 H       1  ZINC000840464592    0.0500
     41 H41       -10.1126   -1.8722   59.7268 H       1  ZINC000840464592    0.0500
     42 H42        -9.9136   -4.0026   56.6911 H       1  ZINC000840464592    0.0800
     43 H43        -9.3881   -2.9641   58.0378 H       1  ZINC000840464592    0.0700
     44 H44        -9.8704   -4.6489   58.3489 H       1  ZINC000840464592    0.0800
     45 H45       -14.1187   -6.0636   56.6903 H       1  ZINC000840464592    0.1000
     46 H46       -15.4948   -5.1818   57.3824 H       1  ZINC000840464592    0.0800
     47 H47       -14.3031   -4.6909   54.6253 H       1  ZINC000840464592    0.0800
     48 H48       -15.7833   -5.6176   54.9557 H       1  ZINC000840464592    0.1000
     49 H49       -16.7094   -3.5336   54.5136 H       1  ZINC000840464592    0.0900
     50 H50       -16.4586   -3.3860   56.2711 H       1  ZINC000840464592    0.1000
     51 H51       -15.0808   -1.8926   54.2382 H       1  ZINC000840464592    0.4000
     52 H52       -16.2803   -2.0871   57.3120 H       1  ZINC000840464592    0.0900
     53 H53       -16.0234   -3.7392   57.9223 H       1  ZINC000840464592    0.1000
     54 H54       -15.7421   -4.1414   60.2261 H       1  ZINC000840464592    0.1200
     55 H55       -15.7435   -3.2883   62.5358 H       1  ZINC000840464592    0.1200
     56 H56       -15.6462   -0.8633   62.9527 H       1  ZINC000840464592    0.1200
     57 H57       -15.5466    0.7083   61.0598 H       1  ZINC000840464592    0.1200
     58 H58       -15.5405   -0.1451   58.7501 H       1  ZINC000840464592    0.1200
@<TRIPOS>BOND
     1     1     2    1
     2     1    29    1
     3     1    30    1
     4     1    31    1
     5     2     3    1
     6     2    32    1
     7     2    33    1
     8     3     4    1
     9     3    34    1
    10     3    35    1
    11     4     5    1
    12     4    36    1
    13     4    37    1
    14     5     6    1
    15     5    38    1
    16     5    39    1
    17     6     7    1
    18     6    40    1
    19     6    41    1
    20     7     8    1
    21     8     9    1
    22     8    10    1
    23     8    11    1
    24    10    42    1
    25    10    43    1
    26    10    44    1
    27    11    12    2
    28    11    13   am
    29    13    20    1
    30    13    14    1
    31    14    15    1
    32    14    45    1
    33    14    46    1
    34    15    16    1
    35    15    47    1
    36    15    48    1
    37    16    17    1
    38    16    49    1
    39    16    50    1
    40    17    18   am
    41    17    51    1
    42    18    19    2
    43    18    20    1
    44    20    21    1
    45    20    22    1
    46    22    23    1
    47    22    52    1
    48    22    53    1
    49    23    28   ar
    50    23    24   ar
    51    24    25   ar
    52    24    54    1
    53    25    26   ar
    54    25    55    1
    55    26    27   ar
    56    26    56    1
    57    27    28   ar
    58    27    57    1
    59    28    58    1
@<TRIPOS>SUBSTRUCTURE
     1 ZINC000840464592        1 TEMP              0 ****  ****    0 ROOT


##########                                Name:    ZINC000015179664
##########                DOCK_Rotatable_Bonds:                   8
##########                         Heavy_Atoms:                  25
##########                    Molecular_Weight:             361.422
##########                DOCK_Rotatable_Bonds:                   8
##########                       Formal_Charge:        -2.23517e-07
##########                     HBond_Acceptors:                   8
##########                        HBond_Donors:                   1
##########                         Heavy_Atoms:                  25
##########                          Grid_Score:          -30.562456
##########                     Grid_vdw_energy:          -29.732609
##########                      Grid_es_energy:           -0.829847
##########           Internal_energy_repulsive:           23.394077

@<TRIPOS>MOLECULE
ZINC000015179664
 44 45 1 0 0
SMALL
USER_CHARGES


@<TRIPOS>ATOM
      1 C1         -4.1305    6.0470   53.5743 C.3     1  ZINC000015179664   -0.1600
      2 C2         -3.1178    4.9190   53.3668 C.3     1  ZINC000015179664    0.1800
      3 H3         -2.1670    5.3399   53.0400 H       1  ZINC000015179664    0.1200
      4 C4         -3.6332    3.9678   52.3178 C.ar    1  ZINC000015179664   -0.1000
      5 C5         -4.8693    3.3698   52.4746 C.ar    1  ZINC000015179664   -0.0700
      6 C6         -5.3422    2.4971   51.5120 C.ar    1  ZINC000015179664   -0.1200
      7 C7         -4.5789    2.2232   50.3928 C.ar    1  ZINC000015179664   -0.0500
      8 C8         -3.3428    2.8222   50.2354 C.ar    1  ZINC000015179664   -0.0400
      9 N9         -2.5252    2.5284   49.0370 N.pl3   1  ZINC000015179664    0.0300
     10 O10        -2.9414    1.7591   48.1895 O.2     1  ZINC000015179664   -0.1600
     11 O11        -1.4363    3.0562   48.8985 O.2     1  ZINC000015179664   -0.1500
     12 C12        -2.8720    3.6979   51.1956 C.ar    1  ZINC000015179664   -0.0400
     13 N13        -2.9250    4.1979   54.6274 N.am    1  ZINC000015179664   -0.6100
     14 C14        -3.8993    4.3446   55.7117 C.3     1  ZINC000015179664    0.0600
     15 C15        -1.8515    3.3993   54.7896 C.2     1  ZINC000015179664    0.5200
     16 O16        -1.0458    3.2767   53.8914 O.2     1  ZINC000015179664   -0.5200
     17 C17        -1.6522    2.6589   56.0869 C.3     1  ZINC000015179664   -0.1500
     18 C18        -0.8455    3.5295   57.0524 C.3     1  ZINC000015179664    0.1300
     19 N19        -0.6824    2.8242   58.3260 N.am    1  ZINC000015179664   -0.7300
     20 C20         0.4000    2.0485   58.5331 C.2     1  ZINC000015179664    0.5800
     21 O21         1.2409    1.9326   57.6618 O.2     1  ZINC000015179664   -0.5300
     22 C22         0.5647    1.3414   59.8135 C.2     1  ZINC000015179664   -0.1500
     23 C23        -0.3277    1.4249   60.8364 C.2     1  ZINC000015179664   -0.2200
     24 S24         0.1791    0.4796   62.1611 S.3     1  ZINC000015179664    0.1900
     25 C25         1.6305   -0.0469   61.3265 C.2     1  ZINC000015179664   -0.2300
     26 C26         1.6875    0.4827   60.1103 C.2     1  ZINC000015179664   -0.0900
     27 H27        -4.2740    6.5836   52.6364 H       1  ZINC000015179664    0.0800
     28 H28        -5.0814    5.6260   53.9011 H       1  ZINC000015179664    0.0600
     29 H29        -3.7577    6.7350   54.3332 H       1  ZINC000015179664    0.0700
     30 H30        -5.4657    3.5838   53.3491 H       1  ZINC000015179664    0.1500
     31 H31        -6.3077    2.0292   51.6350 H       1  ZINC000015179664    0.1500
     32 H32        -4.9480    1.5410   49.6413 H       1  ZINC000015179664    0.1600
     33 H33        -1.9064    4.1658   51.0728 H       1  ZINC000015179664    0.1600
     34 H34        -4.6978    3.6139   55.5840 H       1  ZINC000015179664    0.0600
     35 H35        -3.4050    4.1792   56.6690 H       1  ZINC000015179664    0.0800
     36 H36        -4.3197    5.3501   55.6887 H       1  ZINC000015179664    0.0800
     37 H37        -2.6227    2.4307   56.5278 H       1  ZINC000015179664    0.1000
     38 H38        -1.1126    1.7313   55.8966 H       1  ZINC000015179664    0.1000
     39 H39         0.1350    3.7356   56.6230 H       1  ZINC000015179664    0.0800
     40 H40        -1.3726    4.4684   57.2219 H       1  ZINC000015179664    0.0800
     41 H41        -1.3536    2.9157   59.0205 H       1  ZINC000015179664    0.4000
     42 H42        -1.2346    2.0109   60.8126 H       1  ZINC000015179664    0.1700
     43 H43         2.3722   -0.7124   61.7428 H       1  ZINC000015179664    0.1700
     44 H44         2.4944    0.2967   59.4170 H       1  ZINC000015179664    0.1600
@<TRIPOS>BOND
     1     1     2    1
     2     1    27    1
     3     1    28    1
     4     1    29    1
     5     2     3    1
     6     2     4    1
     7     2    13    1
     8     4    12   ar
     9     4     5   ar
    10     5     6   ar
    11     5    30    1
    12     6     7   ar
    13     6    31    1
    14     7     8   ar
    15     7    32    1
    16     8     9    1
    17     8    12   ar
    18     9    10    2
    19     9    11    2
    20    12    33    1
    21    13    14    1
    22    13    15   am
    23    14    34    1
    24    14    35    1
    25    14    36    1
    26    15    16    2
    27    15    17    1
    28    17    18    1
    29    17    37    1
    30    17    38    1
    31    18    19    1
    32    18    39    1
    33    18    40    1
    34    19    20   am
    35    19    41    1
    36    20    21    2
    37    20    22    1
    38    22    26    1
    39    22    23    2
    40    23    24    1
    41    23    42    1
    42    24    25    1
    43    25    26    2
    44    25    43    1
    45    26    44    1
@<TRIPOS>SUBSTRUCTURE
     1 ZINC000015179664        1 TEMP              0 ****  ****    0 ROOT


##########                                Name:    ZINC001513543414
##########                DOCK_Rotatable_Bonds:                   6
##########                         Heavy_Atoms:                  26
##########                    Molecular_Weight:             364.488
##########                DOCK_Rotatable_Bonds:                   6
##########                       Formal_Charge:         -0.00999974
##########                     HBond_Acceptors:                   7
##########                        HBond_Donors:                   0
##########                         Heavy_Atoms:                  26
##########                          Grid_Score:          -30.551245
##########                     Grid_vdw_energy:          -29.670288
##########                      Grid_es_energy:           -0.880956
##########           Internal_energy_repulsive:           16.493774

@<TRIPOS>MOLECULE
ZINC001513543414
 58 61 1 0 0
SMALL
USER_CHARGES


@<TRIPOS>ATOM
      1 C1         -1.9882    3.8568   57.8416 C.3     1  ZINC001513543414   -0.1500
      2 C2         -3.0263    3.9030   56.7186 C.3     1  ZINC001513543414   -0.1200
      3 C3         -2.4252    4.6007   55.4969 C.3     1  ZINC001513543414    0.1100
      4 C4         -2.0378    6.0363   55.8575 C.3     1  ZINC001513543414   -0.1500
      5 C5         -1.1809    3.8268   55.0111 C.3     1  ZINC001513543414   -0.1500
      6 C6         -1.3194    3.9156   53.4668 C.3     1  ZINC001513543414   -0.1500
      7 C7         -2.8599    3.8695   53.3066 C.3     1  ZINC001513543414    0.0700
      8 H8         -3.2129    2.8387   53.3390 H       1  ZINC001513543414    0.0800
      9 C9         -3.2772    4.5318   51.9920 C.3     1  ZINC001513543414    0.1100
     10 N10        -3.5257    3.4996   50.9826 N.pl3   1  ZINC001513543414   -0.4600
     11 C11        -4.5921    2.6460   50.9200 C.2     1  ZINC001513543414    0.1900
     12 C12        -5.7471    2.5873   51.8862 C.3     1  ZINC001513543414    0.1800
     13 H13        -5.4917    3.1028   52.8119 H       1  ZINC001513543414    0.1000
     14 C14        -7.0121    3.2176   51.2510 C.3     1  ZINC001513543414   -0.1500
     15 C15        -8.1327    2.5036   52.0550 C.3     1  ZINC001513543414   -0.1500
     16 C16        -7.5240    1.1051   52.2943 C.3     1  ZINC001513543414    0.0500
     17 O17        -6.1016    1.2219   52.1571 O.3     1  ZINC001513543414   -0.3500
     18 N18        -4.4248    1.8933   49.8697 N.2     1  ZINC001513543414   -0.2600
     19 N19        -3.3338    2.2107   49.2691 N.2     1  ZINC001513543414   -0.3100
     20 C20        -2.7442    3.1946   49.9064 C.2     1  ZINC001513543414    0.3400
     21 N21        -1.5490    3.8032   49.5574 N.3     1  ZINC001513543414   -0.4500
     22 C22        -1.5130    4.1097   48.1115 C.3     1  ZINC001513543414    0.0500
     23 C23        -0.0280    3.9350   47.7070 C.3     1  ZINC001513543414   -0.1500
     24 C24         0.3930    2.7214   48.5768 C.3     1  ZINC001513543414    0.0700
     25 H25         0.1022    1.7856   48.0995 H       1  ZINC001513543414    0.0800
     26 O26         1.7999    2.7429   48.8272 O.3     1  ZINC001513543414   -0.3800
     27 C27         2.2600    1.6703   49.6516 C.3     1  ZINC001513543414    0.0300
     28 C28        -0.4006    2.9375   49.8825 C.3     1  ZINC001513543414    0.0600
     29 O29        -3.3757    4.6085   54.4252 O.3     1  ZINC001513543414   -0.3600
     30 H30        -2.4164    3.3596   58.7119 H       1  ZINC001513543414    0.0500
     31 H31        -1.1111    3.3050   57.5031 H       1  ZINC001513543414    0.0500
     32 H32        -1.6974    4.8725   58.1097 H       1  ZINC001513543414    0.0600
     33 H33        -3.3170    2.8873   56.4505 H       1  ZINC001513543414    0.0700
     34 H34        -3.9033    4.4546   57.0571 H       1  ZINC001513543414    0.0600
     35 H35        -1.2938    6.0226   56.6539 H       1  ZINC001513543414    0.0700
     36 H36        -1.6220    6.5318   54.9801 H       1  ZINC001513543414    0.0600
     37 H37        -2.9218    6.5771   56.1954 H       1  ZINC001513543414    0.0700
     38 H38        -0.2654    4.3139   55.3471 H       1  ZINC001513543414    0.0900
     39 H39        -1.2146    2.7896   55.3446 H       1  ZINC001513543414    0.0800
     40 H40        -0.9131    4.8540   53.0894 H       1  ZINC001513543414    0.0800
     41 H41        -0.8481    3.0617   52.9803 H       1  ZINC001513543414    0.0900
     42 H42        -4.1863    5.1119   52.1500 H       1  ZINC001513543414    0.1000
     43 H43        -2.4803    5.1914   51.6486 H       1  ZINC001513543414    0.1100
     44 H44        -7.0378    4.2952   51.4132 H       1  ZINC001513543414    0.0900
     45 H45        -7.0783    2.9804   50.1892 H       1  ZINC001513543414    0.0900
     46 H46        -8.3168    3.0135   53.0007 H       1  ZINC001513543414    0.0800
     47 H47        -9.0475    2.4330   51.4666 H       1  ZINC001513543414    0.0900
     48 H48        -7.7702    0.7617   53.2989 H       1  ZINC001513543414    0.0700
     49 H49        -7.9112    0.4023   51.5566 H       1  ZINC001513543414    0.0700
     50 H50        -2.1414    3.4106   47.5597 H       1  ZINC001513543414    0.0600
     51 H51        -1.8369    5.1350   47.9328 H       1  ZINC001513543414    0.0900
     52 H52         0.0631    3.7048   46.6454 H       1  ZINC001513543414    0.0800
     53 H53         0.5536    4.8202   47.9642 H       1  ZINC001513543414    0.0900
     54 H54         3.3370    1.7579   49.7943 H       1  ZINC001513543414    0.0900
     55 H55         1.7603    1.7157   50.6192 H       1  ZINC001513543414    0.0400
     56 H56         2.0334    0.7190   49.1701 H       1  ZINC001513543414    0.0400
     57 H57         0.2321    3.4241   50.6249 H       1  ZINC001513543414    0.1000
     58 H58        -0.7545    1.9797   50.2642 H       1  ZINC001513543414    0.0900
@<TRIPOS>BOND
     1     1     2    1
     2     1    30    1
     3     1    31    1
     4     1    32    1
     5     2     3    1
     6     2    33    1
     7     2    34    1
     8     3    29    1
     9     3     4    1
    10     3     5    1
    11     4    35    1
    12     4    36    1
    13     4    37    1
    14     5     6    1
    15     5    38    1
    16     5    39    1
    17     6     7    1
    18     6    40    1
    19     6    41    1
    20     7     8    1
    21     7     9    1
    22     7    29    1
    23     9    10    1
    24     9    42    1
    25     9    43    1
    26    10    20    1
    27    10    11    1
    28    11    12    1
    29    11    18    2
    30    12    13    1
    31    12    17    1
    32    12    14    1
    33    14    15    1
    34    14    44    1
    35    14    45    1
    36    15    16    1
    37    15    46    1
    38    15    47    1
    39    16    17    1
    40    16    48    1
    41    16    49    1
    42    18    19    1
    43    19    20    2
    44    20    21    1
    45    21    28    1
    46    21    22    1
    47    22    23    1
    48    22    50    1
    49    22    51    1
    50    23    24    1
    51    23    52    1
    52    23    53    1
    53    24    25    1
    54    24    26    1
    55    24    28    1
    56    26    27    1
    57    27    54    1
    58    27    55    1
    59    27    56    1
    60    28    57    1
    61    28    58    1
@<TRIPOS>SUBSTRUCTURE
     1 ZINC001513543414        1 TEMP              0 ****  ****    0 ROOT


##########                                Name:    ZINC000854704989
##########                DOCK_Rotatable_Bonds:                   5
##########                         Heavy_Atoms:                  22
##########                    Molecular_Weight:             365.227
##########                DOCK_Rotatable_Bonds:                   5
##########                       Formal_Charge:        -1.78814e-07
##########                     HBond_Acceptors:                   5
##########                        HBond_Donors:                   1
##########                         Heavy_Atoms:                  22
##########                          Grid_Score:          -30.545326
##########                     Grid_vdw_energy:          -29.222563
##########                      Grid_es_energy:           -1.322764
##########           Internal_energy_repulsive:            6.391417

@<TRIPOS>MOLECULE
ZINC000854704989
 39 41 1 0 0
SMALL
USER_CHARGES


@<TRIPOS>ATOM
      1 O1         -2.7062    1.8299   47.6082 O.2     1  ZINC000854704989   -0.5300
      2 C2         -2.2840    2.5661   48.4784 C.2     1  ZINC000854704989    0.5700
      3 N3         -1.1692    3.2926   48.2641 N.am    1  ZINC000854704989   -0.7300
      4 C4         -0.4630    3.1905   46.9846 C.3     1  ZINC000854704989    0.2000
      5 C5          0.5191    2.0490   47.0426 C.2     1  ZINC000854704989   -0.0500
      6 C6          1.1947    1.6158   48.1333 C.2     1  ZINC000854704989   -0.1700
      7 C7          1.9704    0.5365   47.6485 C.2     1  ZINC000854704989    0.0000
      8 Br8         3.1630   -0.5399   48.6460 Br      1  ZINC000854704989    0.0600
      9 N9          1.6996    0.4311   46.3787 N.2     1  ZINC000854704989   -0.3200
     10 O10         0.8916    1.2586   46.0260 O.3     1  ZINC000854704989    0.1300
     11 C11        -2.9966    2.6692   49.7697 C.ar    1  ZINC000854704989   -0.1300
     12 C12        -2.2996    3.0105   50.9296 C.ar    1  ZINC000854704989   -0.0900
     13 C13        -2.9708    3.1055   52.1313 C.ar    1  ZINC000854704989   -0.1200
     14 C14        -4.3315    2.8626   52.1882 C.ar    1  ZINC000854704989   -0.0900
     15 C15        -5.0286    2.5237   51.0417 C.ar    1  ZINC000854704989   -0.0800
     16 C16        -6.5108    2.2610   51.1131 C.3     1  ZINC000854704989   -0.0800
     17 H17        -6.8940    2.0620   50.1123 H       1  ZINC000854704989    0.0900
     18 C18        -7.2202    3.4858   51.6988 C.3     1  ZINC000854704989   -0.1100
     19 C19        -8.7142    3.1784   51.8388 C.3     1  ZINC000854704989   -0.1600
     20 C20        -8.8913    1.9323   52.7105 C.3     1  ZINC000854704989    0.0600
     21 O21        -8.1818    0.8386   52.1254 O.3     1  ZINC000854704989   -0.3800
     22 C22        -6.7729    1.0494   52.0116 C.3     1  ZINC000854704989    0.0700
     23 C23        -4.3706    2.4310   49.8330 C.ar    1  ZINC000854704989   -0.0500
     24 H24        -0.8345    3.8831   48.9571 H       1  ZINC000854704989    0.4000
     25 H25        -1.1825    3.0107   46.1858 H       1  ZINC000854704989    0.1100
     26 H26         0.0715    4.1202   46.7896 H       1  ZINC000854704989    0.1000
     27 H27         1.1518    2.0045   49.1401 H       1  ZINC000854704989    0.1900
     28 H28        -1.2372    3.1996   50.8866 H       1  ZINC000854704989    0.1200
     29 H29        -2.4326    3.3696   53.0296 H       1  ZINC000854704989    0.1300
     30 H30        -4.8521    2.9376   53.1315 H       1  ZINC000854704989    0.1300
     31 H31        -6.8017    3.7156   52.6787 H       1  ZINC000854704989    0.0700
     32 H32        -7.0842    4.3387   51.0338 H       1  ZINC000854704989    0.0700
     33 H33        -9.2180    4.0244   52.3061 H       1  ZINC000854704989    0.0800
     34 H34        -9.1427    2.9973   50.8531 H       1  ZINC000854704989    0.0700
     35 H35        -8.4990    2.1281   53.7084 H       1  ZINC000854704989    0.0500
     36 H36        -9.9505    1.6839   52.7785 H       1  ZINC000854704989    0.1000
     37 H37        -6.3070    0.1651   51.5769 H       1  ZINC000854704989    0.1000
     38 H38        -6.3519    1.2338   53.0000 H       1  ZINC000854704989    0.0500
     39 H39        -4.9158    2.1668   48.9389 H       1  ZINC000854704989    0.1400
@<TRIPOS>BOND
     1     1     2    2
     2     2     3   am
     3     2    11    1
     4     3     4    1
     5     3    24    1
     6     4     5    1
     7     4    25    1
     8     4    26    1
     9     5    10    1
    10     5     6    2
    11     6     7    1
    12     6    27    1
    13     7     8    1
    14     7     9    2
    15     9    10    1
    16    11    23   ar
    17    11    12   ar
    18    12    13   ar
    19    12    28    1
    20    13    14   ar
    21    13    29    1
    22    14    15   ar
    23    14    30    1
    24    15    16    1
    25    15    23   ar
    26    16    17    1
    27    16    22    1
    28    16    18    1
    29    18    19    1
    30    18    31    1
    31    18    32    1
    32    19    20    1
    33    19    33    1
    34    19    34    1
    35    20    21    1
    36    20    35    1
    37    20    36    1
    38    21    22    1
    39    22    37    1
    40    22    38    1
    41    23    39    1
@<TRIPOS>SUBSTRUCTURE
     1 ZINC000854704989        1 TEMP              0 ****  ****    0 ROOT


##########                                Name:    ZINC000482540246
##########                DOCK_Rotatable_Bonds:                  10
##########                         Heavy_Atoms:                  30
##########                    Molecular_Weight:              409.46
##########                DOCK_Rotatable_Bonds:                  10
##########                       Formal_Charge:         2.83122e-07
##########                     HBond_Acceptors:                   7
##########                        HBond_Donors:                   2
##########                         Heavy_Atoms:                  30
##########                          Grid_Score:          -30.541050
##########                     Grid_vdw_energy:          -29.602642
##########                      Grid_es_energy:           -0.938408
##########           Internal_energy_repulsive:            9.954218

@<TRIPOS>MOLECULE
ZINC000482540246
 54 56 1 0 0
SMALL
USER_CHARGES


@<TRIPOS>ATOM
      1 C1        -10.8105   -4.5664   57.9530 C.3     1  ZINC000482540246    0.0400
      2 O2        -10.3684   -3.9076   56.7644 O.3     1  ZINC000482540246   -0.3100
      3 C3        -11.1166   -2.8653   56.3233 C.ar    1  ZINC000482540246    0.3300
      4 C4        -10.7825   -2.2344   55.1321 C.ar    1  ZINC000482540246   -0.1800
      5 C5        -11.5539   -1.1722   54.6931 C.ar    1  ZINC000482540246   -0.0100
      6 C6        -11.2251   -0.4612   53.4057 C.3     1  ZINC000482540246    0.2000
      7 H7        -11.6371    0.5475   53.4322 H       1  ZINC000482540246    0.1000
      8 C8        -11.8317   -1.2292   52.2296 C.3     1  ZINC000482540246   -0.1600
      9 N9         -9.7707   -0.3906   53.2446 N.am    1  ZINC000482540246   -0.7400
     10 C10        -9.2124    0.6647   52.6194 C.2     1  ZINC000482540246    0.7100
     11 O11        -9.9159    1.5575   52.1876 O.2     1  ZINC000482540246   -0.5800
     12 N12        -7.8742    0.7305   52.4726 N.am    1  ZINC000482540246   -0.7400
     13 C13        -7.2673    1.8786   51.7945 C.3     1  ZINC000482540246    0.2100
     14 H14        -7.7626    2.0386   50.8369 H       1  ZINC000482540246    0.1200
     15 C15        -5.7803    1.6048   51.5602 C.3     1  ZINC000482540246    0.0500
     16 O16        -5.1925    2.7162   50.8810 O.3     1  ZINC000482540246   -0.3000
     17 C17        -3.8540    2.8970   51.0366 C.ar    1  ZINC000482540246    0.1000
     18 C18        -3.3441    3.2863   52.2654 C.ar    1  ZINC000482540246   -0.1800
     19 C19        -1.9829    3.4689   52.4215 C.ar    1  ZINC000482540246   -0.0900
     20 C20        -1.1291    3.2639   51.3541 C.ar    1  ZINC000482540246   -0.1300
     21 C21        -1.6337    2.8758   50.1262 C.ar    1  ZINC000482540246   -0.1200
     22 C22        -2.9941    2.6860   49.9658 C.ar    1  ZINC000482540246    0.0700
     23 F23        -3.4874    2.3069   48.7665 F       1  ZINC000482540246   -0.1300
     24 C24        -7.4225    3.1081   52.6519 C.ar    1  ZINC000482540246   -0.1000
     25 C25        -7.0301    3.0807   53.9772 C.ar    1  ZINC000482540246   -0.0800
     26 C26        -7.1725    4.2085   54.7637 C.ar    1  ZINC000482540246   -0.1200
     27 C27        -7.7070    5.3640   54.2249 C.ar    1  ZINC000482540246   -0.1200
     28 C28        -8.0986    5.3916   52.8995 C.ar    1  ZINC000482540246   -0.1200
     29 C29        -7.9521    4.2651   52.1118 C.ar    1  ZINC000482540246   -0.1000
     30 C30       -12.6373   -0.7773   55.4653 C.ar    1  ZINC000482540246   -0.2100
     31 C31       -12.9112   -1.4506   56.6395 C.ar    1  ZINC000482540246    0.1500
     32 N32       -12.1605   -2.4631   57.0292 N.ar    1  ZINC000482540246   -0.5400
     33 H33       -10.1249   -5.3785   58.1948 H       1  ZINC000482540246    0.1000
     34 H34       -10.8334   -3.8529   58.7768 H       1  ZINC000482540246    0.0600
     35 H35       -11.8104   -4.9701   57.7941 H       1  ZINC000482540246    0.0600
     36 H36        -9.9319   -2.5678   54.5561 H       1  ZINC000482540246    0.1500
     37 H37       -11.4197   -2.2379   52.2031 H       1  ZINC000482540246    0.0600
     38 H38       -12.9138   -1.2817   52.3494 H       1  ZINC000482540246    0.0700
     39 H39       -11.5939   -0.7149   51.2984 H       1  ZINC000482540246    0.0700
     40 H40        -9.2095   -1.1034   53.5880 H       1  ZINC000482540246    0.4000
     41 H41        -7.3130    0.0178   52.8160 H       1  ZINC000482540246    0.4000
     42 H42        -5.2821    1.4599   52.5188 H       1  ZINC000482540246    0.0800
     43 H43        -5.6675    0.7068   50.9527 H       1  ZINC000482540246    0.0800
     44 H44        -4.0101    3.4472   53.1002 H       1  ZINC000482540246    0.1400
     45 H45        -1.5859    3.7727   53.3789 H       1  ZINC000482540246    0.1300
     46 H46        -0.0661    3.4074   51.4790 H       1  ZINC000482540246    0.1400
     47 H47        -0.9645    2.7167   49.2936 H       1  ZINC000482540246    0.1400
     48 H48        -6.6125    2.1780   54.3981 H       1  ZINC000482540246    0.1200
     49 H49        -6.8666    4.1869   55.7993 H       1  ZINC000482540246    0.1200
     50 H50        -7.8189    6.2449   54.8396 H       1  ZINC000482540246    0.1200
     51 H51        -8.5164    6.2942   52.4786 H       1  ZINC000482540246    0.1200
     52 H52        -8.2581    4.2867   51.0763 H       1  ZINC000482540246    0.1200
     53 H53       -13.2593    0.0479   55.1515 H       1  ZINC000482540246    0.1400
     54 H54       -13.7531   -1.1473   57.2440 H       1  ZINC000482540246    0.1600
@<TRIPOS>BOND
     1     1     2    1
     2     1    33    1
     3     1    34    1
     4     1    35    1
     5     2     3    1
     6     3    32   ar
     7     3     4   ar
     8     4     5   ar
     9     4    36    1
    10     5     6    1
    11     5    30   ar
    12     6     7    1
    13     6     8    1
    14     6     9    1
    15     8    37    1
    16     8    38    1
    17     8    39    1
    18     9    10   am
    19     9    40    1
    20    10    11    2
    21    10    12   am
    22    12    13    1
    23    12    41    1
    24    13    14    1
    25    13    15    1
    26    13    24    1
    27    15    16    1
    28    15    42    1
    29    15    43    1
    30    16    17    1
    31    17    22   ar
    32    17    18   ar
    33    18    19   ar
    34    18    44    1
    35    19    20   ar
    36    19    45    1
    37    20    21   ar
    38    20    46    1
    39    21    22   ar
    40    21    47    1
    41    22    23    1
    42    24    29   ar
    43    24    25   ar
    44    25    26   ar
    45    25    48    1
    46    26    27   ar
    47    26    49    1
    48    27    28   ar
    49    27    50    1
    50    28    29   ar
    51    28    51    1
    52    29    52    1
    53    30    31   ar
    54    30    53    1
    55    31    32   ar
    56    31    54    1
@<TRIPOS>SUBSTRUCTURE
     1 ZINC000482540246        1 TEMP              0 ****  ****    0 ROOT


##########                                Name:    ZINC000549381790
##########                DOCK_Rotatable_Bonds:                   7
##########                         Heavy_Atoms:                  23
##########                    Molecular_Weight:             337.846
##########                DOCK_Rotatable_Bonds:                   7
##########                       Formal_Charge:           0.0300006
##########                     HBond_Acceptors:                   5
##########                        HBond_Donors:                   0
##########                         Heavy_Atoms:                  23
##########                          Grid_Score:          -30.526007
##########                     Grid_vdw_energy:          -29.632065
##########                      Grid_es_energy:           -0.893943
##########           Internal_energy_repulsive:           86.179840

@<TRIPOS>MOLECULE
ZINC000549381790
 47 49 1 0 0
SMALL
USER_CHARGES


@<TRIPOS>ATOM
      1 C1         -1.7528    1.9971   47.7850 C.3     1  ZINC000549381790   -0.1400
      2 C2         -1.0248    2.5340   49.0188 C.3     1  ZINC000549381790    0.1500
      3 H3         -0.3902    1.7529   49.4374 H       1  ZINC000549381790    0.0700
      4 C4         -0.1641    3.7382   48.6239 C.3     1  ZINC000549381790   -0.1300
      5 C5          0.4511    4.3552   49.8820 C.3     1  ZINC000549381790   -0.1200
      6 C6         -0.6637    4.8422   50.8107 C.3     1  ZINC000549381790   -0.1400
      7 C7         -1.5300    3.6506   51.2305 C.3     1  ZINC000549381790    0.1000
      8 N8         -2.0078    2.9611   50.0237 N.am    1  ZINC000549381790   -0.6100
      9 C9         -3.3228    2.7298   49.8403 C.2     1  ZINC000549381790    0.5200
     10 O10        -3.7045    2.1599   48.8400 O.2     1  ZINC000549381790   -0.5000
     11 C11        -4.3189    3.1794   50.8780 C.3     1  ZINC000549381790    0.0400
     12 O12        -5.6410    3.0758   50.3455 O.3     1  ZINC000549381790   -0.2800
     13 C13        -6.5468    2.3709   51.0748 C.ar    1  ZINC000549381790    0.1100
     14 C14        -7.6014    3.0270   51.6916 C.ar    1  ZINC000549381790   -0.1700
     15 C15        -8.5223    2.3112   52.4325 C.ar    1  ZINC000549381790   -0.1600
     16 C16        -8.3921    0.9368   52.5599 C.ar    1  ZINC000549381790    0.1100
     17 O17        -9.2986    0.2324   53.2892 O.3     1  ZINC000549381790   -0.3000
     18 C18       -10.5373   -0.0861   52.6518 C.3     1  ZINC000549381790    0.0900
     19 C19       -11.5365   -0.5831   53.6984 C.3     1  ZINC000549381790   -0.1600
     20 C20       -12.0945   -1.9973   53.5266 C.3     1  ZINC000549381790   -0.1700
     21 C21       -11.0803   -1.7044   54.6341 C.3     1  ZINC000549381790   -0.1700
     22 C22        -7.3365    0.2797   51.9427 C.ar    1  ZINC000549381790   -0.0300
     23 Cl23       -7.1732   -1.4414   52.1015 Cl      1  ZINC000549381790   -0.0400
     24 C24        -6.4189    0.9951   51.1970 C.ar    1  ZINC000549381790   -0.1000
     25 H25        -2.4611    2.7443   47.4271 H       1  ZINC000549381790    0.0600
     26 H26        -1.0273    1.7794   47.0011 H       1  ZINC000549381790    0.0500
     27 H27        -2.2886    1.0849   48.0475 H       1  ZINC000549381790    0.0800
     28 H28         0.6306    3.4127   47.9524 H       1  ZINC000549381790    0.0800
     29 H29        -0.7848    4.4797   48.1211 H       1  ZINC000549381790    0.0700
     30 H30         1.0518    3.6058   50.3975 H       1  ZINC000549381790    0.0700
     31 H31         1.0838    5.1972   49.6015 H       1  ZINC000549381790    0.0700
     32 H32        -0.2247    5.3025   51.6958 H       1  ZINC000549381790    0.0800
     33 H33        -1.2797    5.5733   50.2874 H       1  ZINC000549381790    0.0700
     34 H34        -0.9369    2.9615   51.8318 H       1  ZINC000549381790    0.0800
     35 H35        -2.3821    4.0047   51.8107 H       1  ZINC000549381790    0.0800
     36 H36        -4.2328    2.5476   51.7620 H       1  ZINC000549381790    0.0900
     37 H37        -4.1171    4.2152   51.1507 H       1  ZINC000549381790    0.0900
     38 H38        -7.7029    4.0977   51.5931 H       1  ZINC000549381790    0.1400
     39 H39        -9.3435    2.8225   52.9127 H       1  ZINC000549381790    0.1400
     40 H40       -10.9345    0.8041   52.1641 H       1  ZINC000549381790    0.0700
     41 H41       -10.3730   -0.8654   51.9075 H       1  ZINC000549381790    0.0700
     42 H42       -12.2033    0.1750   54.1090 H       1  ZINC000549381790    0.1200
     43 H43       -13.1288   -2.1698   53.8242 H       1  ZINC000549381790    0.1000
     44 H44       -11.7498   -2.5735   52.6680 H       1  ZINC000549381790    0.1000
     45 H45       -10.0683   -2.0879   54.5041 H       1  ZINC000549381790    0.1000
     46 H46       -11.4474   -1.6841   55.6602 H       1  ZINC000549381790    0.1000
     47 H47        -5.5975    0.4843   50.7167 H       1  ZINC000549381790    0.1500
@<TRIPOS>BOND
     1     1     2    1
     2     1    25    1
     3     1    26    1
     4     1    27    1
     5     2     3    1
     6     2     8    1
     7     2     4    1
     8     4     5    1
     9     4    28    1
    10     4    29    1
    11     5     6    1
    12     5    30    1
    13     5    31    1
    14     6     7    1
    15     6    32    1
    16     6    33    1
    17     7     8    1
    18     7    34    1
    19     7    35    1
    20     8     9   am
    21     9    10    2
    22     9    11    1
    23    11    12    1
    24    11    36    1
    25    11    37    1
    26    12    13    1
    27    13    24   ar
    28    13    14   ar
    29    14    15   ar
    30    14    38    1
    31    15    16   ar
    32    15    39    1
    33    16    17    1
    34    16    22   ar
    35    17    18    1
    36    18    19    1
    37    18    40    1
    38    18    41    1
    39    19    21    1
    40    19    20    1
    41    19    42    1
    42    20    21    1
    43    20    43    1
    44    20    44    1
    45    21    45    1
    46    21    46    1
    47    22    23    1
    48    22    24   ar
    49    24    47    1
@<TRIPOS>SUBSTRUCTURE
     1 ZINC000549381790        1 TEMP              0 ****  ****    0 ROOT


##########                                Name:    ZINC000668548901
##########                DOCK_Rotatable_Bonds:                   9
##########                         Heavy_Atoms:                  26
##########                    Molecular_Weight:             374.464
##########                DOCK_Rotatable_Bonds:                   9
##########                       Formal_Charge:         3.53903e-07
##########                     HBond_Acceptors:                   8
##########                        HBond_Donors:                   3
##########                         Heavy_Atoms:                  26
##########                          Grid_Score:          -30.498695
##########                     Grid_vdw_energy:          -30.632326
##########                      Grid_es_energy:            0.133632
##########           Internal_energy_repulsive:            9.165051

@<TRIPOS>MOLECULE
ZINC000668548901
 48 50 1 0 0
SMALL
USER_CHARGES


@<TRIPOS>ATOM
      1 O1         -4.3186    2.6816   51.6709 O.2     1  ZINC000668548901   -0.5700
      2 C2         -4.5002    2.4104   50.4997 C.2     1  ZINC000668548901    0.7100
      3 N3         -5.5800    1.6914   50.1342 N.am    1  ZINC000668548901   -0.6800
      4 C4         -6.4867    1.2535   51.1006 C.ar    1  ZINC000668548901    0.2200
      5 C5         -6.6771   -0.1089   51.3374 C.ar    1  ZINC000668548901   -0.1700
      6 C6         -7.5811   -0.5053   52.2996 C.ar    1  ZINC000668548901    0.1200
      7 N7         -8.2649    0.3839   52.9954 N.ar    1  ZINC000668548901   -0.4300
      8 C8         -8.1149    1.6869   52.8027 C.ar    1  ZINC000668548901    0.1100
      9 S9         -9.0563    2.8249   53.7637 S.3     1  ZINC000668548901    0.0900
     10 C10        -8.5588    2.4570   55.4135 C.ar    1  ZINC000668548901    0.0900
     11 C11        -7.3103    2.8716   55.8657 C.ar    1  ZINC000668548901   -0.1500
     12 C12        -6.9327    2.5764   57.1634 C.ar    1  ZINC000668548901   -0.0700
     13 C13        -7.8198    1.8738   57.9681 C.ar    1  ZINC000668548901   -0.1700
     14 C14        -9.0436    1.4930   57.4539 C.ar    1  ZINC000668548901    0.1000
     15 N15        -9.3792    1.7927   56.2138 N.ar    1  ZINC000668548901   -0.4200
     16 C16        -7.2187    2.1640   51.8555 C.ar    1  ZINC000668548901   -0.1800
     17 N17        -3.6247    2.8333   49.5665 N.am    1  ZINC000668548901   -0.7200
     18 C18        -2.4511    3.6148   49.9639 C.3     1  ZINC000668548901    0.1700
     19 H19        -1.9468    3.1173   50.7924 H       1  ZINC000668548901    0.1000
     20 C20        -2.8932    5.0127   50.4012 C.3     1  ZINC000668548901    0.0600
     21 O21        -2.1709    5.3959   51.5731 O.3     1  ZINC000668548901   -0.5700
     22 C22        -1.4906    3.7312   48.7784 C.3     1  ZINC000668548901   -0.1300
     23 H23        -1.9532    4.3279   47.9922 H       1  ZINC000668548901    0.1000
     24 C24        -1.1710    2.3335   48.2395 C.3     1  ZINC000668548901   -0.1200
     25 C25        -0.1496    2.4572   47.1046 C.3     1  ZINC000668548901   -0.1600
     26 C26         1.0964    3.1778   47.6264 C.3     1  ZINC000668548901    0.0600
     27 O27         0.7243    4.4579   48.1411 O.3     1  ZINC000668548901   -0.3800
     28 C28        -0.1935    4.4039   49.2352 C.3     1  ZINC000668548901    0.0700
     29 H29        -5.7271    1.4785   49.1993 H       1  ZINC000668548901    0.4100
     30 H30        -6.1228   -0.8441   50.7727 H       1  ZINC000668548901    0.1500
     31 H31        -7.7320   -1.5582   52.4867 H       1  ZINC000668548901    0.1600
     32 H32        -6.6446    3.4162   55.2126 H       1  ZINC000668548901    0.1400
     33 H33        -5.9695    2.8850   57.5420 H       1  ZINC000668548901    0.1400
     34 H34        -7.5552    1.6273   58.9858 H       1  ZINC000668548901    0.1400
     35 H35        -9.7364    0.9461   58.0762 H       1  ZINC000668548901    0.1600
     36 H36        -7.0985    3.2261   51.7007 H       1  ZINC000668548901    0.1400
     37 H37        -3.7717    2.6203   48.6316 H       1  ZINC000668548901    0.4000
     38 H38        -2.6913    5.7246   49.6008 H       1  ZINC000668548901    0.0500
     39 H39        -3.9612    5.0043   50.6191 H       1  ZINC000668548901    0.0600
     40 H40        -2.2883    4.7950   52.3216 H       1  ZINC000668548901    0.3800
     41 H41        -0.7551    1.7206   49.0391 H       1  ZINC000668548901    0.0700
     42 H42        -2.0827    1.8715   47.8607 H       1  ZINC000668548901    0.0700
     43 H43         0.1254    1.4631   46.7521 H       1  ZINC000668548901    0.0800
     44 H44        -0.5840    3.0284   46.2843 H       1  ZINC000668548901    0.0700
     45 H45         1.5532    2.5858   48.4195 H       1  ZINC000668548901    0.0500
     46 H46         1.8094    3.3066   46.8120 H       1  ZINC000668548901    0.1000
     47 H47        -0.4085    5.4156   49.5794 H       1  ZINC000668548901    0.1000
     48 H48         0.2456    3.8282   50.0499 H       1  ZINC000668548901    0.0500
@<TRIPOS>BOND
     1     1     2    2
     2     2     3   am
     3     2    17   am
     4     3     4    1
     5     3    29    1
     6     4    16   ar
     7     4     5   ar
     8     5     6   ar
     9     5    30    1
    10     6     7   ar
    11     6    31    1
    12     7     8   ar
    13     8     9    1
    14     8    16   ar
    15     9    10    1
    16    10    15   ar
    17    10    11   ar
    18    11    12   ar
    19    11    32    1
    20    12    13   ar
    21    12    33    1
    22    13    14   ar
    23    13    34    1
    24    14    15   ar
    25    14    35    1
    26    16    36    1
    27    17    18    1
    28    17    37    1
    29    18    19    1
    30    18    20    1
    31    18    22    1
    32    20    21    1
    33    20    38    1
    34    20    39    1
    35    21    40    1
    36    22    23    1
    37    22    28    1
    38    22    24    1
    39    24    25    1
    40    24    41    1
    41    24    42    1
    42    25    26    1
    43    25    43    1
    44    25    44    1
    45    26    27    1
    46    26    45    1
    47    26    46    1
    48    27    28    1
    49    28    47    1
    50    28    48    1
@<TRIPOS>SUBSTRUCTURE
     1 ZINC000668548901        1 TEMP              0 ****  ****    0 ROOT


##########                                Name:    ZINC001340305486
##########                DOCK_Rotatable_Bonds:                   8
##########                         Heavy_Atoms:                  27
##########                    Molecular_Weight:             378.431
##########                DOCK_Rotatable_Bonds:                   8
##########                       Formal_Charge:          0.00999955
##########                     HBond_Acceptors:                  10
##########                        HBond_Donors:                   2
##########                         Heavy_Atoms:                  27
##########                          Grid_Score:          -30.461966
##########                     Grid_vdw_energy:          -29.331947
##########                      Grid_es_energy:           -1.130019
##########           Internal_energy_repulsive:            9.793776

@<TRIPOS>MOLECULE
ZINC001340305486
 53 55 1 0 0
SMALL
USER_CHARGES


@<TRIPOS>ATOM
      1 C1         -1.4595    3.0696   56.9752 C.3     1  ZINC001340305486    0.0900
      2 N2         -2.8634    2.9930   56.5639 N.am    1  ZINC001340305486   -0.7300
      3 C3         -3.6474    4.0870   56.6359 C.2     1  ZINC001340305486    0.5200
      4 O4         -3.1908    5.1345   57.0425 O.2     1  ZINC001340305486   -0.5100
      5 C5         -5.0911    4.0087   56.2111 C.3     1  ZINC001340305486    0.0600
      6 H6         -5.4675    3.0006   56.3846 H       1  ZINC001340305486    0.0900
      7 C7         -5.2055    4.3485   54.7207 C.3     1  ZINC001340305486    0.0900
      8 N8         -6.6324    4.4488   54.3757 N.am    1  ZINC001340305486   -0.5800
      9 C9         -7.1397    3.7816   53.3203 C.2     1  ZINC001340305486    0.5100
     10 O10        -8.3193    3.8778   53.0516 O.2     1  ZINC001340305486   -0.5200
     11 C11        -6.2496    2.9234   52.4807 C.2     1  ZINC001340305486    0.5200
     12 O12        -6.3404    1.7147   52.5401 O.2     1  ZINC001340305486   -0.5000
     13 N13        -5.3463    3.4918   51.6578 N.am    1  ZINC001340305486   -0.6900
     14 C14        -4.4727    2.6504   50.8361 C.3     1  ZINC001340305486    0.1200
     15 C15        -3.2121    3.4340   50.4648 C.3     1  ZINC001340305486   -0.0400
     16 C16        -2.6014    2.8425   49.2204 C.2     1  ZINC001340305486    0.1700
     17 N17        -3.0708    1.8391   48.5270 N.2     1  ZINC001340305486   -0.2800
     18 N18        -2.2983    1.6058   47.5238 N.2     1  ZINC001340305486   -0.2900
     19 C19        -1.3075    2.4514   47.5310 C.2     1  ZINC001340305486    0.1900
     20 C20        -0.1890    2.5518   46.5265 C.3     1  ZINC001340305486   -0.0400
     21 C21         1.1434    2.6759   47.2716 C.3     1  ZINC001340305486   -0.1200
     22 C22         1.4350    4.1463   47.5558 C.3     1  ZINC001340305486   -0.1300
     23 C23         0.1361    4.9108   47.8065 C.3     1  ZINC001340305486   -0.1400
     24 C24        -0.5756    4.3327   49.0329 C.3     1  ZINC001340305486    0.1000
     25 N25        -1.4686    3.2538   48.6090 N.pl3   1  ZINC001340305486   -0.4600
     26 C26        -7.4891    5.2998   55.2168 C.3     1  ZINC001340305486    0.0200
     27 C27        -7.2635    4.9137   56.6830 C.3     1  ZINC001340305486    0.0500
     28 O28        -5.8630    4.9436   56.9686 O.3     1  ZINC001340305486   -0.3500
     29 H29        -0.9407    3.8060   56.3615 H       1  ZINC001340305486    0.0600
     30 H30        -1.4033    3.3653   58.0228 H       1  ZINC001340305486    0.0600
     31 H31        -0.9896    2.0944   56.8473 H       1  ZINC001340305486    0.0800
     32 H32        -3.2289    2.1550   56.2399 H       1  ZINC001340305486    0.4000
     33 H33        -4.7119    5.2999   54.5221 H       1  ZINC001340305486    0.0900
     34 H34        -4.7390    3.5616   54.1280 H       1  ZINC001340305486    0.1100
     35 H35        -5.2746    4.4579   51.6095 H       1  ZINC001340305486    0.4200
     36 H36        -4.1939    1.7587   51.3977 H       1  ZINC001340305486    0.0900
     37 H37        -4.9993    2.3578   49.9278 H       1  ZINC001340305486    0.0800
     38 H38        -3.4731    4.4763   50.2814 H       1  ZINC001340305486    0.0900
     39 H39        -2.4948    3.3777   51.2836 H       1  ZINC001340305486    0.1100
     40 H40        -0.1766    1.6571   45.9041 H       1  ZINC001340305486    0.1000
     41 H41        -0.3396    3.4310   45.8999 H       1  ZINC001340305486    0.0900
     42 H42         1.0855    2.1288   48.2125 H       1  ZINC001340305486    0.0600
     43 H43         1.9425    2.2593   46.6583 H       1  ZINC001340305486    0.0800
     44 H44         2.0732    4.2228   48.4362 H       1  ZINC001340305486    0.0700
     45 H45         1.9500    4.5829   46.7000 H       1  ZINC001340305486    0.0800
     46 H46         0.3625    5.9628   47.9811 H       1  ZINC001340305486    0.0900
     47 H47        -0.5120    4.8202   46.9349 H       1  ZINC001340305486    0.0800
     48 H48         0.1640    3.9437   49.7327 H       1  ZINC001340305486    0.0900
     49 H49        -1.1589    5.1157   49.5176 H       1  ZINC001340305486    0.1000
     50 H50        -7.2255    6.3469   55.0681 H       1  ZINC001340305486    0.0800
     51 H51        -8.5349    5.1428   54.9525 H       1  ZINC001340305486    0.1700
     52 H52        -7.7822    5.6214   57.3298 H       1  ZINC001340305486    0.1200
     53 H53        -7.6487    3.9091   56.8584 H       1  ZINC001340305486    0.0600
@<TRIPOS>BOND
     1     1     2    1
     2     1    29    1
     3     1    30    1
     4     1    31    1
     5     2     3   am
     6     2    32    1
     7     3     4    2
     8     3     5    1
     9     5     6    1
    10     5    28    1
    11     5     7    1
    12     7     8    1
    13     7    33    1
    14     7    34    1
    15     8     9   am
    16     8    26    1
    17     9    10    2
    18     9    11    1
    19    11    12    2
    20    11    13   am
    21    13    14    1
    22    13    35    1
    23    14    15    1
    24    14    36    1
    25    14    37    1
    26    15    16    1
    27    15    38    1
    28    15    39    1
    29    16    25    1
    30    16    17    2
    31    17    18    1
    32    18    19    2
    33    19    25    1
    34    19    20    1
    35    20    21    1
    36    20    40    1
    37    20    41    1
    38    21    22    1
    39    21    42    1
    40    21    43    1
    41    22    23    1
    42    22    44    1
    43    22    45    1
    44    23    24    1
    45    23    46    1
    46    23    47    1
    47    24    25    1
    48    24    48    1
    49    24    49    1
    50    26    27    1
    51    26    50    1
    52    26    51    1
    53    27    28    1
    54    27    52    1
    55    27    53    1
@<TRIPOS>SUBSTRUCTURE
     1 ZINC001340305486        1 TEMP              0 ****  ****    0 ROOT


##########                                Name:    ZINC001217683559
##########                DOCK_Rotatable_Bonds:                   3
##########                         Heavy_Atoms:                  25
##########                    Molecular_Weight:             397.234
##########                DOCK_Rotatable_Bonds:                   3
##########                       Formal_Charge:          0.00999987
##########                     HBond_Acceptors:                   7
##########                        HBond_Donors:                   0
##########                         Heavy_Atoms:                  25
##########                          Grid_Score:          -30.461435
##########                     Grid_vdw_energy:          -29.553137
##########                      Grid_es_energy:           -0.908299
##########           Internal_energy_repulsive:            6.971722

@<TRIPOS>MOLECULE
ZINC001217683559
 38 42 1 0 0
SMALL
USER_CHARGES


@<TRIPOS>ATOM
      1 Br1       -11.2845    2.8367   50.9235 Br      1  ZINC001217683559    0.0100
      2 C2        -11.0971    1.1853   51.8255 C.ar    1  ZINC001217683559   -0.1200
      3 C3        -12.1722    0.3177   51.9340 C.ar    1  ZINC001217683559   -0.0500
      4 C4        -11.9887   -0.8825   52.6044 C.ar    1  ZINC001217683559   -0.1500
      5 C5        -10.7483   -1.1769   53.1412 C.ar    1  ZINC001217683559    0.1200
      6 N6         -9.7432   -0.3339   53.0241 N.ar    1  ZINC001217683559   -0.4400
      7 C7         -9.8744    0.8209   52.3858 C.ar    1  ZINC001217683559    0.2200
      8 C8         -8.7128    1.7395   52.2792 C.2     1  ZINC001217683559    0.2100
      9 N9         -8.6773    2.9908   52.6590 N.2     1  ZINC001217683559   -0.3300
     10 O10        -7.5845    3.4679   52.4379 O.3     1  ZINC001217683559    0.1000
     11 C11        -6.7872    2.5443   51.8783 C.2     1  ZINC001217683559    0.2300
     12 C12        -5.3824    2.7307   51.4605 C.2     1  ZINC001217683559   -0.0600
     13 C13        -4.9571    2.2467   50.2557 C.2     1  ZINC001217683559    0.1800
     14 N14        -3.6694    2.4134   49.8645 N.pl3   1  ZINC001217683559   -0.2900
     15 N15        -2.9620    2.0356   48.7141 N.2     1  ZINC001217683559   -0.3300
     16 C16        -1.7288    2.4577   48.8640 C.2     1  ZINC001217683559    0.2800
     17 C17        -0.6189    2.2687   47.8623 C.3     1  ZINC001217683559   -0.0300
     18 C18        -1.1051    1.7727   46.4903 C.3     1  ZINC001217683559   -0.1200
     19 C19        -0.0829    2.7377   45.8668 C.3     1  ZINC001217683559   -0.1400
     20 C20        -0.1989    3.5684   47.1558 C.3     1  ZINC001217683559   -0.1200
     21 N21        -1.6080    3.0765   50.0302 N.2     1  ZINC001217683559   -0.5300
     22 C22        -2.7741    3.0666   50.6650 C.2     1  ZINC001217683559    0.2900
     23 C23        -3.1867    3.5757   51.9119 C.2     1  ZINC001217683559   -0.1000
     24 C24        -4.4771    3.4156   52.3050 C.2     1  ZINC001217683559   -0.0200
     25 N25        -7.4974    1.4358   51.7780 N.2     1  ZINC001217683559   -0.4300
     26 H26       -13.1312    0.5706   51.5064 H       1  ZINC001217683559    0.1600
     27 H27       -12.8066   -1.5804   52.7066 H       1  ZINC001217683559    0.1500
     28 H28       -10.6022   -2.1106   53.6639 H       1  ZINC001217683559    0.1800
     29 H29        -5.6508    1.7278   49.6109 H       1  ZINC001217683559    0.1900
     30 H30         0.2196    1.6986   48.2622 H       1  ZINC001217683559    0.1200
     31 H31        -0.8844    0.7218   46.3027 H       1  ZINC001217683559    0.0700
     32 H32        -2.1409    2.0339   46.2735 H       1  ZINC001217683559    0.1000
     33 H33         0.9023    2.2949   45.7199 H       1  ZINC001217683559    0.0800
     34 H34        -0.4530    3.2528   44.9805 H       1  ZINC001217683559    0.0800
     35 H35        -0.9870    4.3207   47.1208 H       1  ZINC001217683559    0.0900
     36 H36         0.7533    3.9675   47.5053 H       1  ZINC001217683559    0.0700
     37 H37        -2.4838    4.0924   52.5486 H       1  ZINC001217683559    0.1700
     38 H38        -4.8074    3.8007   53.2583 H       1  ZINC001217683559    0.1700
@<TRIPOS>BOND
     1     1     2    1
     2     2     7   ar
     3     2     3   ar
     4     3     4   ar
     5     3    26    1
     6     4     5   ar
     7     4    27    1
     8     5     6   ar
     9     5    28    1
    10     6     7   ar
    11     7     8    1
    12     8    25    1
    13     8     9    2
    14     9    10    1
    15    10    11    1
    16    11    12    1
    17    11    25    2
    18    12    24    1
    19    12    13    2
    20    13    14    1
    21    13    29    1
    22    14    22    1
    23    14    15    1
    24    15    16    2
    25    16    17    1
    26    16    21    1
    27    17    20    1
    28    17    18    1
    29    17    30    1
    30    18    19    1
    31    18    31    1
    32    18    32    1
    33    19    20    1
    34    19    33    1
    35    19    34    1
    36    20    35    1
    37    20    36    1
    38    21    22    2
    39    22    23    1
    40    23    24    2
    41    23    37    1
    42    24    38    1
@<TRIPOS>SUBSTRUCTURE
     1 ZINC001217683559        1 TEMP              0 ****  ****    0 ROOT


##########                                Name:    ZINC000435292384
##########                DOCK_Rotatable_Bonds:                   6
##########                         Heavy_Atoms:                  22
##########                    Molecular_Weight:             326.503
##########                DOCK_Rotatable_Bonds:                   6
##########                       Formal_Charge:         -0.00999993
##########                     HBond_Acceptors:                   5
##########                        HBond_Donors:                   0
##########                         Heavy_Atoms:                  22
##########                          Grid_Score:          -30.460787
##########                     Grid_vdw_energy:          -29.061899
##########                      Grid_es_energy:           -1.398887
##########           Internal_energy_repulsive:           23.689785

@<TRIPOS>MOLECULE
ZINC000435292384
 52 53 1 0 0
SMALL
USER_CHARGES


@<TRIPOS>ATOM
      1 C1          2.5192   -1.7703   49.6987 C.3     1  ZINC000435292384   -0.1500
      2 C2          2.5178   -0.4157   48.9876 C.3     1  ZINC000435292384   -0.1200
      3 C3          2.5332    0.7063   50.0277 C.3     1  ZINC000435292384   -0.1400
      4 C4          2.5017    2.0610   49.3171 C.3     1  ZINC000435292384    0.1600
      5 H5          3.1083    2.0110   48.4128 H       1  ZINC000435292384    0.0900
      6 C6          3.0615    3.1384   50.2479 C.3     1  ZINC000435292384   -0.1700
      7 N7          1.1201    2.3933   48.9606 N.am    1  ZINC000435292384   -0.6100
      8 C8          0.0066    2.4393   49.9157 C.3     1  ZINC000435292384    0.1200
      9 C9         -1.1121    3.2341   49.2063 C.3     1  ZINC000435292384   -0.1300
     10 H10        -1.0544    4.2940   49.4536 H       1  ZINC000435292384    0.1100
     11 C11        -2.4697    2.6764   49.5484 C.2     1  ZINC000435292384    0.5200
     12 O12        -3.1481    2.1602   48.6858 O.2     1  ZINC000435292384   -0.5200
     13 N13        -2.9300    2.7516   50.8129 N.am    1  ZINC000435292384   -0.6000
     14 C14        -2.0796    3.3863   51.8389 C.3     1  ZINC000435292384    0.1000
     15 C15        -2.8870    4.3030   52.7758 C.3     1  ZINC000435292384   -0.1300
     16 C16        -3.9067    5.0844   51.9844 C.3     1  ZINC000435292384   -0.1100
     17 C17        -5.2244    4.3158   51.9594 C.3     1  ZINC000435292384   -0.1200
     18 C18        -5.3137    3.3005   50.8989 C.3     1  ZINC000435292384   -0.0700
     19 H19        -5.1613    3.7764   49.9301 H       1  ZINC000435292384    0.0900
     20 S20        -6.9570    2.5334   50.9390 S.3     1  ZINC000435292384   -0.2500
     21 C21        -6.8914    1.5059   52.4325 C.3     1  ZINC000435292384   -0.1200
     22 C22        -4.2389    2.2125   51.1071 C.3     1  ZINC000435292384    0.1400
     23 C23        -0.7736    2.9941   47.7168 C.3     1  ZINC000435292384   -0.1400
     24 C24         0.7105    2.7008   47.7178 C.2     1  ZINC000435292384    0.5200
     25 O25         1.4253    2.7316   46.7385 O.2     1  ZINC000435292384   -0.5200
     26 H26         2.5082   -2.5697   48.9578 H       1  ZINC000435292384    0.0500
     27 H27         3.4152   -1.8571   50.3134 H       1  ZINC000435292384    0.0500
     28 H28         1.6353   -1.8494   50.3316 H       1  ZINC000435292384    0.0500
     29 H29         3.4017   -0.3366   48.3547 H       1  ZINC000435292384    0.0600
     30 H30         1.6218   -0.3290   48.3729 H       1  ZINC000435292384    0.0600
     31 H31         1.6604    0.6147   50.6740 H       1  ZINC000435292384    0.0800
     32 H32         3.4396    0.6323   50.6285 H       1  ZINC000435292384    0.0800
     33 H33         2.4548    3.1882   51.1522 H       1  ZINC000435292384    0.0700
     34 H34         4.0893    2.8911   50.5133 H       1  ZINC000435292384    0.0700
     35 H35         3.0389    4.1034   49.7418 H       1  ZINC000435292384    0.0600
     36 H36        -0.3351    1.4300   50.1454 H       1  ZINC000435292384    0.0900
     37 H37         0.3130    2.9513   50.8278 H       1  ZINC000435292384    0.0800
     38 H38        -1.6002    2.6077   52.4323 H       1  ZINC000435292384    0.0700
     39 H39        -1.3087    3.9769   51.3438 H       1  ZINC000435292384    0.0900
     40 H40        -3.3975    3.6962   53.5236 H       1  ZINC000435292384    0.0700
     41 H41        -2.2097    4.9954   53.2759 H       1  ZINC000435292384    0.0800
     42 H42        -4.0617    6.0571   52.4512 H       1  ZINC000435292384    0.0700
     43 H43        -3.5471    5.2230   50.9647 H       1  ZINC000435292384    0.0600
     44 H44        -5.3556    3.8226   52.9226 H       1  ZINC000435292384    0.0800
     45 H45        -6.0382    5.0285   51.8257 H       1  ZINC000435292384    0.0600
     46 H46        -6.0897    0.7740   52.3350 H       1  ZINC000435292384    0.0800
     47 H47        -6.7029    2.1380   53.3004 H       1  ZINC000435292384    0.0800
     48 H48        -7.8424    0.9885   52.5596 H       1  ZINC000435292384    0.1000
     49 H49        -4.4402    1.3716   50.4435 H       1  ZINC000435292384    0.0900
     50 H50        -4.2635    1.8715   52.1422 H       1  ZINC000435292384    0.0900
     51 H51        -1.3343    2.1428   47.3305 H       1  ZINC000435292384    0.1100
     52 H52        -0.9826    3.8881   47.1292 H       1  ZINC000435292384    0.1100
@<TRIPOS>BOND
     1     1     2    1
     2     1    26    1
     3     1    27    1
     4     1    28    1
     5     2     3    1
     6     2    29    1
     7     2    30    1
     8     3     4    1
     9     3    31    1
    10     3    32    1
    11     4     5    1
    12     4     6    1
    13     4     7    1
    14     6    33    1
    15     6    34    1
    16     6    35    1
    17     7    24   am
    18     7     8    1
    19     8     9    1
    20     8    36    1
    21     8    37    1
    22     9    10    1
    23     9    11    1
    24     9    23    1
    25    11    12    2
    26    11    13   am
    27    13    22    1
    28    13    14    1
    29    14    15    1
    30    14    38    1
    31    14    39    1
    32    15    16    1
    33    15    40    1
    34    15    41    1
    35    16    17    1
    36    16    42    1
    37    16    43    1
    38    17    18    1
    39    17    44    1
    40    17    45    1
    41    18    19    1
    42    18    20    1
    43    18    22    1
    44    20    21    1
    45    21    46    1
    46    21    47    1
    47    21    48    1
    48    22    49    1
    49    22    50    1
    50    23    24    1
    51    23    51    1
    52    23    52    1
    53    24    25    2
@<TRIPOS>SUBSTRUCTURE
     1 ZINC000435292384        1 TEMP              0 ****  ****    0 ROOT


##########                                Name:    ZINC000898967786
##########                DOCK_Rotatable_Bonds:                   5
##########                         Heavy_Atoms:                  25
##########                    Molecular_Weight:             356.448
##########                DOCK_Rotatable_Bonds:                   5
##########                       Formal_Charge:        -2.38419e-07
##########                     HBond_Acceptors:                   7
##########                        HBond_Donors:                   1
##########                         Heavy_Atoms:                  25
##########                          Grid_Score:          -30.443602
##########                     Grid_vdw_energy:          -28.643946
##########                      Grid_es_energy:           -1.799655
##########           Internal_energy_repulsive:           10.238709

@<TRIPOS>MOLECULE
ZINC000898967786
 45 48 1 0 0
SMALL
USER_CHARGES


@<TRIPOS>ATOM
      1 C1         -4.8036    2.4537   50.7764 C.3     1  ZINC000898967786   -0.0800
      2 C2         -3.6616    2.7262   49.8316 C.2     1  ZINC000898967786    0.0900
      3 C3         -2.8071    3.7699   49.9085 C.2     1  ZINC000898967786   -0.1000
      4 C4         -2.8222    4.8638   50.9448 C.3     1  ZINC000898967786    0.2200
      5 N5         -2.2785    4.3505   52.2047 N.am    1  ZINC000898967786   -0.7400
      6 C6         -2.9603    4.5259   53.3541 C.2     1  ZINC000898967786    0.7100
      7 O7         -4.0265    5.1101   53.3453 O.2     1  ZINC000898967786   -0.5800
      8 N8         -2.4600    4.0537   54.5130 N.am    1  ZINC000898967786   -0.6300
      9 C9         -3.1861    4.2331   55.7803 C.3     1  ZINC000898967786    0.0900
     10 C10        -2.2177    4.8204   56.8134 C.3     1  ZINC000898967786    0.0500
     11 O11        -1.0389    4.0133   56.8658 O.3     1  ZINC000898967786   -0.3700
     12 C12        -0.3017    3.9739   55.6416 C.3     1  ZINC000898967786    0.1400
     13 H13        -0.0275    4.9874   55.3489 H       1  ZINC000898967786    0.0700
     14 C14         0.9456    3.1497   55.8314 C.2     1  ZINC000898967786   -0.1100
     15 C15         2.0319    3.3074   55.0735 C.2     1  ZINC000898967786   -0.1800
     16 S16         3.2781    2.1772   55.5865 S.3     1  ZINC000898967786    0.1100
     17 C17         2.2226    1.5352   56.8385 C.2     1  ZINC000898967786   -0.2100
     18 C18         1.0529    2.1758   56.8092 C.2     1  ZINC000898967786   -0.1300
     19 C19        -1.1746    3.3382   54.5476 C.3     1  ZINC000898967786    0.0900
     20 N20        -1.9251    3.6475   48.8695 N.pl3   1  ZINC000898967786   -0.3500
     21 C21        -0.8651    4.4056   48.4640 C.2     1  ZINC000898967786    0.0600
     22 C22        -0.1438    4.0539   47.3791 C.2     1  ZINC000898967786   -0.1400
     23 C23        -0.4762    2.8996   46.6508 C.2     1  ZINC000898967786   -0.1000
     24 C24        -1.5303    2.1350   47.0440 C.2     1  ZINC000898967786   -0.0800
     25 C25        -2.2734    2.5154   48.1795 C.2     1  ZINC000898967786    0.2400
     26 N26        -3.3221    1.9735   48.7826 N.2     1  ZINC000898967786   -0.4900
     27 H27        -4.4520    1.8359   51.6028 H       1  ZINC000898967786    0.0800
     28 H28        -5.1865    3.3971   51.1654 H       1  ZINC000898967786    0.0700
     29 H29        -5.5983    1.9307   50.2444 H       1  ZINC000898967786    0.0800
     30 H30        -2.2132    5.6995   50.6001 H       1  ZINC000898967786    0.1000
     31 H31        -3.8466    5.2013   51.1020 H       1  ZINC000898967786    0.0700
     32 H32        -1.4278    3.8844   52.2116 H       1  ZINC000898967786    0.4000
     33 H33        -4.0222    4.9162   55.6309 H       1  ZINC000898967786    0.1100
     34 H34        -3.5566    3.2697   56.1306 H       1  ZINC000898967786    0.0800
     35 H35        -1.9504    5.8371   56.5250 H       1  ZINC000898967786    0.0600
     36 H36        -2.6945    4.8327   57.7936 H       1  ZINC000898967786    0.1100
     37 H37         2.1309    4.0197   54.2678 H       1  ZINC000898967786    0.1700
     38 H38         2.4833    0.7464   57.5284 H       1  ZINC000898967786    0.1700
     39 H39         0.2478    1.9465   57.4914 H       1  ZINC000898967786    0.1400
     40 H40        -1.3404    2.2853   54.7759 H       1  ZINC000898967786    0.0800
     41 H41        -0.6784    3.4312   53.5816 H       1  ZINC000898967786    0.0900
     42 H42        -0.6014    5.2954   49.0164 H       1  ZINC000898967786    0.1600
     43 H43         0.6926    4.6627   47.0691 H       1  ZINC000898967786    0.1500
     44 H44         0.1022    2.6207   45.7824 H       1  ZINC000898967786    0.1500
     45 H45        -1.7952    1.2456   46.4915 H       1  ZINC000898967786    0.1500
@<TRIPOS>BOND
     1     1     2    1
     2     1    27    1
     3     1    28    1
     4     1    29    1
     5     2    26    1
     6     2     3    2
     7     3     4    1
     8     3    20    1
     9     4     5    1
    10     4    30    1
    11     4    31    1
    12     5     6   am
    13     5    32    1
    14     6     7    2
    15     6     8   am
    16     8    19    1
    17     8     9    1
    18     9    10    1
    19     9    33    1
    20     9    34    1
    21    10    11    1
    22    10    35    1
    23    10    36    1
    24    11    12    1
    25    12    13    1
    26    12    14    1
    27    12    19    1
    28    14    18    1
    29    14    15    2
    30    15    16    1
    31    15    37    1
    32    16    17    1
    33    17    18    2
    34    17    38    1
    35    18    39    1
    36    19    40    1
    37    19    41    1
    38    20    25    1
    39    20    21    1
    40    21    22    2
    41    21    42    1
    42    22    23    1
    43    22    43    1
    44    23    24    2
    45    23    44    1
    46    24    25    1
    47    24    45    1
    48    25    26    2
@<TRIPOS>SUBSTRUCTURE
     1 ZINC000898967786        1 TEMP              0 ****  ****    0 ROOT


##########                                Name:    ZINC000548281822
##########                DOCK_Rotatable_Bonds:                   6
##########                         Heavy_Atoms:                  24
##########                    Molecular_Weight:             332.406
##########                DOCK_Rotatable_Bonds:                   6
##########                       Formal_Charge:        -5.58794e-08
##########                     HBond_Acceptors:                   8
##########                        HBond_Donors:                   2
##########                         Heavy_Atoms:                  24
##########                          Grid_Score:          -30.411703
##########                     Grid_vdw_energy:          -28.223270
##########                      Grid_es_energy:           -2.188432
##########           Internal_energy_repulsive:            7.088425

@<TRIPOS>MOLECULE
ZINC000548281822
 48 50 1 0 0
SMALL
USER_CHARGES


@<TRIPOS>ATOM
      1 C1         -9.9300    3.0955   53.6473 C.3     1  ZINC000548281822   -0.1700
      2 C2         -9.2982    1.9645   52.8333 C.3     1  ZINC000548281822    0.2600
      3 H3         -9.5184    2.1110   51.7759 H       1  ZINC000548281822    0.1400
      4 N4         -7.8472    1.9692   53.0353 N.am    1  ZINC000548281822   -0.7400
      5 C5         -7.0347    2.4518   52.0744 C.2     1  ZINC000548281822    0.7100
      6 O6         -7.5057    2.8819   51.0393 O.2     1  ZINC000548281822   -0.5700
      7 N7         -5.6999    2.4575   52.2608 N.am    1  ZINC000548281822   -0.7400
      8 C8         -4.8167    2.9837   51.2170 C.3     1  ZINC000548281822    0.1600
      9 H9         -5.3023    3.8224   50.7181 H       1  ZINC000548281822    0.1000
     10 C10        -3.5033    3.4551   51.8482 C.3     1  ZINC000548281822   -0.1400
     11 C11        -2.6781    4.2155   50.8043 C.3     1  ZINC000548281822    0.1100
     12 N12        -2.5908    3.4032   49.5886 N.pl3   1  ZINC000548281822   -0.4600
     13 C13        -1.7115    3.5377   48.5557 C.2     1  ZINC000548281822   -0.0500
     14 C14        -2.0096    2.5703   47.6648 C.2     1  ZINC000548281822   -0.0300
     15 N15        -3.0462    1.8654   48.1465 N.2     1  ZINC000548281822   -0.4900
     16 C16        -3.4006    2.3576   49.2974 C.2     1  ZINC000548281822    0.2100
     17 C17        -4.5197    1.8808   50.1932 C.3     1  ZINC000548281822   -0.0500
     18 C18        -9.8641    0.6431   53.2858 C.2     1  ZINC000548281822    0.1700
     19 N19       -10.5084    0.4113   54.4041 N.2     1  ZINC000548281822   -0.4600
     20 C20       -10.8201   -0.8967   54.3779 C.2     1  ZINC000548281822    0.1900
     21 C21       -11.5681   -1.6569   55.4427 C.3     1  ZINC000548281822    0.0200
     22 C22       -12.5011   -0.7023   56.1905 C.3     1  ZINC000548281822   -0.1400
     23 C23       -12.3922   -2.7693   54.7913 C.3     1  ZINC000548281822   -0.1400
     24 C24       -10.5707   -2.2708   56.4271 C.3     1  ZINC000548281822   -0.1400
     25 N25       -10.3579   -1.3847   53.2657 N.2     1  ZINC000548281822   -0.3700
     26 O26        -9.8103   -0.5151   52.6212 O.3     1  ZINC000548281822    0.0800
     27 H27        -9.7099    2.9490   54.7047 H       1  ZINC000548281822    0.0700
     28 H28        -9.5207    4.0512   53.3200 H       1  ZINC000548281822    0.0900
     29 H29       -11.0096    3.0921   53.4971 H       1  ZINC000548281822    0.0800
     30 H30        -7.4713    1.6249   53.8606 H       1  ZINC000548281822    0.4000
     31 H31        -5.3239    2.1132   53.0861 H       1  ZINC000548281822    0.4000
     32 H32        -3.7201    4.1132   52.6895 H       1  ZINC000548281822    0.1000
     33 H33        -2.9383    2.5913   52.1989 H       1  ZINC000548281822    0.0800
     34 H34        -3.1631    5.1644   50.5758 H       1  ZINC000548281822    0.0900
     35 H35        -1.6765    4.3992   51.1935 H       1  ZINC000548281822    0.1000
     36 H36        -0.9285    4.2763   48.4677 H       1  ZINC000548281822    0.1800
     37 H37        -1.5035    2.3936   46.7273 H       1  ZINC000548281822    0.1700
     38 H38        -4.2141    0.9715   50.7110 H       1  ZINC000548281822    0.0900
     39 H39        -5.4098    1.6832   49.5961 H       1  ZINC000548281822    0.1000
     40 H40       -13.2116   -0.2649   55.4892 H       1  ZINC000548281822    0.0600
     41 H41       -13.0421   -1.2520   56.9607 H       1  ZINC000548281822    0.0700
     42 H42       -11.9139    0.0903   56.6546 H       1  ZINC000548281822    0.0700
     43 H43       -11.7276   -3.4494   54.2586 H       1  ZINC000548281822    0.0600
     44 H44       -12.9333   -3.3190   55.5614 H       1  ZINC000548281822    0.0700
     45 H45       -13.1028   -2.3320   54.0900 H       1  ZINC000548281822    0.0600
     46 H46        -9.9835   -1.4782   56.8912 H       1  ZINC000548281822    0.0700
     47 H47       -11.1118   -2.8205   57.1972 H       1  ZINC000548281822    0.0700
     48 H48        -9.9061   -2.9508   55.8943 H       1  ZINC000548281822    0.0600
@<TRIPOS>BOND
     1     1     2    1
     2     1    27    1
     3     1    28    1
     4     1    29    1
     5     2     3    1
     6     2     4    1
     7     2    18    1
     8     4     5   am
     9     4    30    1
    10     5     6    2
    11     5     7   am
    12     7     8    1
    13     7    31    1
    14     8     9    1
    15     8    17    1
    16     8    10    1
    17    10    11    1
    18    10    32    1
    19    10    33    1
    20    11    12    1
    21    11    34    1
    22    11    35    1
    23    12    16    1
    24    12    13    1
    25    13    14    2
    26    13    36    1
    27    14    15    1
    28    14    37    1
    29    15    16    2
    30    16    17    1
    31    17    38    1
    32    17    39    1
    33    18    26    1
    34    18    19    2
    35    19    20    1
    36    20    21    1
    37    20    25    2
    38    21    22    1
    39    21    23    1
    40    21    24    1
    41    22    40    1
    42    22    41    1
    43    22    42    1
    44    23    43    1
    45    23    44    1
    46    23    45    1
    47    24    46    1
    48    24    47    1
    49    24    48    1
    50    25    26    1
@<TRIPOS>SUBSTRUCTURE
     1 ZINC000548281822        1 TEMP              0 ****  ****    0 ROOT


##########                                Name:    ZINC000265786263
##########                DOCK_Rotatable_Bonds:                   7
##########                         Heavy_Atoms:                  28
##########                    Molecular_Weight:             386.451
##########                DOCK_Rotatable_Bonds:                   7
##########                       Formal_Charge:           0.0499992
##########                     HBond_Acceptors:                   8
##########                        HBond_Donors:                   2
##########                         Heavy_Atoms:                  28
##########                          Grid_Score:          -30.410215
##########                     Grid_vdw_energy:          -29.337004
##########                      Grid_es_energy:           -1.073212
##########           Internal_energy_repulsive:           16.062906

@<TRIPOS>MOLECULE
ZINC000265786263
 54 57 1 0 0
SMALL
USER_CHARGES


@<TRIPOS>ATOM
      1 C1         -1.2442    4.4080   48.1438 C.3     1  ZINC000265786263   -0.1500
      2 C2         -1.0712    3.3585   49.2437 C.3     1  ZINC000265786263    0.1600
      3 C3          0.1285    2.4580   48.9422 C.3     1  ZINC000265786263   -0.1600
      4 C4          1.5050    2.9352   49.4094 C.3     1  ZINC000265786263   -0.1600
      5 C5          0.8137    1.7742   50.1268 C.3     1  ZINC000265786263   -0.1600
      6 N6         -0.9202    4.0056   50.5583 N.am    1  ZINC000265786263   -0.7100
      7 C7         -1.9528    3.5890   51.3132 C.2     1  ZINC000265786263    0.7100
      8 O8         -2.1319    3.9362   52.4641 O.2     1  ZINC000265786263   -0.5400
      9 N9         -2.7607    2.7495   50.6554 N.am    1  ZINC000265786263   -0.5600
     10 C10        -3.9623    2.1418   51.2327 C.3     1  ZINC000265786263    0.1000
     11 C11        -5.1201    3.0977   51.1037 C.2     1  ZINC000265786263    0.5100
     12 O12        -4.9191    4.2582   50.8142 O.2     1  ZINC000265786263   -0.5300
     13 N13        -6.3791    2.6630   51.3101 N.am    1  ZINC000265786263   -0.6100
     14 C14        -6.6444    1.2617   51.6698 C.3     1  ZINC000265786263    0.1100
     15 C15        -7.5369    1.2395   52.9153 C.3     1  ZINC000265786263    0.0400
     16 N16        -8.7337    2.0553   52.6708 N.3     1  ZINC000265786263   -0.5300
     17 C17        -9.6957    1.9223   53.7729 C.3     1  ZINC000265786263    0.0900
     18 C18       -10.2850    0.5353   53.7607 C.ar    1  ZINC000265786263   -0.0600
     19 C19       -10.5653   -0.0854   52.5577 C.ar    1  ZINC000265786263   -0.1300
     20 C20       -11.1061   -1.3581   52.5431 C.ar    1  ZINC000265786263   -0.1000
     21 C21       -11.3676   -2.0123   53.7312 C.ar    1  ZINC000265786263   -0.1400
     22 C22       -11.0872   -1.3913   54.9399 C.ar    1  ZINC000265786263    0.1100
     23 O23       -11.3433   -2.0331   56.1101 O.3     1  ZINC000265786263   -0.5000
     24 C24       -10.5396   -0.1170   54.9518 C.ar    1  ZINC000265786263   -0.1200
     25 C25        -8.3818    3.4637   52.4464 C.3     1  ZINC000265786263    0.0400
     26 C26        -7.5235    3.5786   51.1877 C.3     1  ZINC000265786263    0.1200
     27 C27        -2.3331    2.5326   49.3959 C.2     1  ZINC000265786263    0.5400
     28 O28        -2.8505    1.8248   48.5586 O.2     1  ZINC000265786263   -0.4500
     29 H29        -2.0789    5.0627   48.3944 H       1  ZINC000265786263    0.0700
     30 H30        -0.3321    4.9986   48.0585 H       1  ZINC000265786263    0.0800
     31 H31        -1.4449    3.9104   47.1950 H       1  ZINC000265786263    0.0900
     32 H32         0.0784    1.9070   48.0030 H       1  ZINC000265786263    0.1100
     33 H33         2.3610    2.6983   48.7774 H       1  ZINC000265786263    0.1000
     34 H34         1.5561    3.8907   49.9315 H       1  ZINC000265786263    0.1100
     35 H35         0.4100    1.9656   51.1210 H       1  ZINC000265786263    0.1000
     36 H36         1.2149    0.7733   49.9669 H       1  ZINC000265786263    0.1000
     37 H37        -0.2136    4.6132   50.8275 H       1  ZINC000265786263    0.4400
     38 H38        -4.1929    1.2180   50.7022 H       1  ZINC000265786263    0.1300
     39 H39        -3.7881    1.9221   52.2860 H       1  ZINC000265786263    0.1300
     40 H40        -7.1536    0.7623   50.8455 H       1  ZINC000265786263    0.0900
     41 H41        -5.7038    0.7543   51.8841 H       1  ZINC000265786263    0.0900
     42 H42        -7.8341    0.2133   53.1314 H       1  ZINC000265786263    0.0900
     43 H43        -6.9869    1.6458   53.7641 H       1  ZINC000265786263    0.0400
     44 H44        -9.1869    2.0925   54.7218 H       1  ZINC000265786263    0.0900
     45 H45       -10.4920    2.6565   53.6509 H       1  ZINC000265786263    0.0500
     46 H46       -10.3617    0.4246   51.6276 H       1  ZINC000265786263    0.1200
     47 H47       -11.3243   -1.8408   51.6020 H       1  ZINC000265786263    0.1300
     48 H48       -11.7903   -3.0061   53.7191 H       1  ZINC000265786263    0.1300
     49 H49       -11.7347   -2.9105   56.0001 H       1  ZINC000265786263    0.3900
     50 H50       -10.3205    0.3683   55.8914 H       1  ZINC000265786263    0.1300
     51 H51        -9.2919    4.0508   52.3225 H       1  ZINC000265786263    0.1000
     52 H52        -7.8201    3.8390   53.3018 H       1  ZINC000265786263    0.0400
     53 H53        -7.1654    4.6026   51.0808 H       1  ZINC000265786263    0.1000
     54 H54        -8.1147    3.3016   50.3147 H       1  ZINC000265786263    0.0800
@<TRIPOS>BOND
     1     1     2    1
     2     1    29    1
     3     1    30    1
     4     1    31    1
     5     2    27    1
     6     2     3    1
     7     2     6    1
     8     3     5    1
     9     3     4    1
    10     3    32    1
    11     4     5    1
    12     4    33    1
    13     4    34    1
    14     5    35    1
    15     5    36    1
    16     6     7   am
    17     6    37    1
    18     7     8    2
    19     7     9   am
    20     9    10    1
    21     9    27   am
    22    10    11    1
    23    10    38    1
    24    10    39    1
    25    11    12    2
    26    11    13   am
    27    13    26    1
    28    13    14    1
    29    14    15    1
    30    14    40    1
    31    14    41    1
    32    15    16    1
    33    15    42    1
    34    15    43    1
    35    16    17    1
    36    16    25    1
    37    17    18    1
    38    17    44    1
    39    17    45    1
    40    18    24   ar
    41    18    19   ar
    42    19    20   ar
    43    19    46    1
    44    20    21   ar
    45    20    47    1
    46    21    22   ar
    47    21    48    1
    48    22    23    1
    49    22    24   ar
    50    23    49    1
    51    24    50    1
    52    25    26    1
    53    25    51    1
    54    25    52    1
    55    26    53    1
    56    26    54    1
    57    27    28    2
@<TRIPOS>SUBSTRUCTURE
     1 ZINC000265786263        1 TEMP              0 ****  ****    0 ROOT


##########                                Name:    ZINC000652498551
##########                DOCK_Rotatable_Bonds:                   6
##########                         Heavy_Atoms:                  23
##########                    Molecular_Weight:             388.277
##########                DOCK_Rotatable_Bonds:                   6
##########                       Formal_Charge:          -0.0400001
##########                     HBond_Acceptors:                   5
##########                        HBond_Donors:                   1
##########                         Heavy_Atoms:                  23
##########                          Grid_Score:          -30.403313
##########                     Grid_vdw_energy:          -28.640982
##########                      Grid_es_energy:           -1.762331
##########           Internal_energy_repulsive:           23.325123

@<TRIPOS>MOLECULE
ZINC000652498551
 46 47 1 0 0
SMALL
USER_CHARGES


@<TRIPOS>ATOM
      1 C1          2.9605   -0.8761   47.9658 C.3     1  ZINC000652498551   -0.1300
      2 C2          3.0686    0.6445   48.0978 C.3     1  ZINC000652498551   -0.1300
      3 C3          2.5677    1.0735   49.4783 C.3     1  ZINC000652498551   -0.1300
      4 C4          4.5073    1.0618   47.9334 C.2     1  ZINC000652498551    0.5000
      5 O5          5.2327    0.4585   47.1612 O.co2   1  ZINC000652498551   -0.7000
      6 O6          4.9459    2.0028   48.5727 O.co2   1  ZINC000652498551   -0.6700
      7 C7          2.2172    1.3121   47.0160 C.3     1  ZINC000652498551   -0.0600
      8 H8          2.3972    0.8238   46.0583 H       1  ZINC000652498551    0.0700
      9 C9          2.5909    2.7936   46.9130 C.3     1  ZINC000652498551   -0.1500
     10 C10         1.6801    3.4693   45.8839 C.3     1  ZINC000652498551   -0.1400
     11 C11         0.2196    3.2668   46.2928 C.3     1  ZINC000652498551   -0.0100
     12 N12        -0.0824    1.8314   46.3478 N.4     1  ZINC000652498551   -0.3800
     13 H13         0.1191    1.4118   45.4526 H       1  ZINC000652498551    0.4200
     14 C14        -1.5041    1.6435   46.6662 C.3     1  ZINC000652498551    0.0000
     15 C15        -1.8238    2.3291   47.9962 C.3     1  ZINC000652498551    0.0200
     16 O16        -3.2034    2.1333   48.3135 O.3     1  ZINC000652498551   -0.3100
     17 C17        -3.6039    2.4805   49.5648 C.ar    1  ZINC000652498551    0.1600
     18 C18        -2.8064    3.3034   50.3457 C.ar    1  ZINC000652498551   -0.2300
     19 C19        -3.2162    3.6556   51.6198 C.ar    1  ZINC000652498551    0.1500
     20 F20        -2.4400    4.4572   52.3814 F       1  ZINC000652498551   -0.1200
     21 C21        -4.4216    3.1868   52.1139 C.ar    1  ZINC000652498551   -0.1600
     22 C22        -5.2175    2.3653   51.3357 C.ar    1  ZINC000652498551   -0.0300
     23 Br23       -6.8633    1.7268   52.0135 Br      1  ZINC000652498551   -0.0100
     24 C24        -4.8139    2.0163   50.0605 C.ar    1  ZINC000652498551   -0.1300
     25 C25         0.7367    1.1885   47.3824 C.3     1  ZINC000652498551   -0.0200
     26 H26         1.9199   -1.1779   48.0847 H       1  ZINC000652498551    0.0400
     27 H27         3.3174   -1.1816   46.9823 H       1  ZINC000652498551    0.0500
     28 H28         3.5671   -1.3517   48.7364 H       1  ZINC000652498551    0.0600
     29 H29         3.1743    0.5978   50.2489 H       1  ZINC000652498551    0.0700
     30 H30         2.6448    2.1567   49.5724 H       1  ZINC000652498551    0.0400
     31 H31         1.5271    0.7716   49.5971 H       1  ZINC000652498551    0.0500
     32 H32         2.4605    3.2708   47.8842 H       1  ZINC000652498551    0.1300
     33 H33         3.6299    2.8862   46.5966 H       1  ZINC000652498551    0.0800
     34 H34         1.9028    4.5356   45.8453 H       1  ZINC000652498551    0.1000
     35 H35         1.8482    3.0261   44.9024 H       1  ZINC000652498551    0.0700
     36 H36         0.0525    3.7107   47.2742 H       1  ZINC000652498551    0.1300
     37 H37        -0.4317    3.7469   45.5623 H       1  ZINC000652498551    0.1100
     38 H38        -2.1144    2.0808   45.8762 H       1  ZINC000652498551    0.1400
     39 H39        -1.7210    0.5782   46.7453 H       1  ZINC000652498551    0.1500
     40 H40        -1.2053    1.8997   48.7843 H       1  ZINC000652498551    0.1100
     41 H41        -1.6180    3.3963   47.9135 H       1  ZINC000652498551    0.0900
     42 H42        -1.8662    3.6689   49.9600 H       1  ZINC000652498551    0.1500
     43 H43        -4.7408    3.4624   53.1081 H       1  ZINC000652498551    0.1500
     44 H44        -5.4360    1.3753   49.4536 H       1  ZINC000652498551    0.1500
     45 H45         0.4669    0.1351   47.4562 H       1  ZINC000652498551    0.1100
     46 H46         0.5592    1.6762   48.3409 H       1  ZINC000652498551    0.1700
@<TRIPOS>BOND
     1     1     2    1
     2     1    26    1
     3     1    27    1
     4     1    28    1
     5     2     3    1
     6     2     4    1
     7     2     7    1
     8     3    29    1
     9     3    30    1
    10     3    31    1
    11     4     5   ar
    12     4     6   ar
    13     7     8    1
    14     7    25    1
    15     7     9    1
    16     9    10    1
    17     9    32    1
    18     9    33    1
    19    10    11    1
    20    10    34    1
    21    10    35    1
    22    11    12    1
    23    11    36    1
    24    11    37    1
    25    12    13    1
    26    12    14    1
    27    12    25    1
    28    14    15    1
    29    14    38    1
    30    14    39    1
    31    15    16    1
    32    15    40    1
    33    15    41    1
    34    16    17    1
    35    17    24   ar
    36    17    18   ar
    37    18    19   ar
    38    18    42    1
    39    19    20    1
    40    19    21   ar
    41    21    22   ar
    42    21    43    1
    43    22    23    1
    44    22    24   ar
    45    24    44    1
    46    25    45    1
    47    25    46    1
@<TRIPOS>SUBSTRUCTURE
     1 ZINC000652498551        1 TEMP              0 ****  ****    0 ROOT


##########                                Name:    ZINC000600609084
##########                DOCK_Rotatable_Bonds:                   8
##########                         Heavy_Atoms:                  30
##########                    Molecular_Weight:             422.548
##########                DOCK_Rotatable_Bonds:                   8
##########                       Formal_Charge:           0.0100005
##########                     HBond_Acceptors:                   6
##########                        HBond_Donors:                   2
##########                         Heavy_Atoms:                  30
##########                          Grid_Score:          -30.400448
##########                     Grid_vdw_energy:          -29.476973
##########                      Grid_es_energy:           -0.923476
##########           Internal_energy_repulsive:           19.400436

@<TRIPOS>MOLECULE
ZINC000600609084
 56 59 1 0 0
SMALL
USER_CHARGES


@<TRIPOS>ATOM
      1 O1         -7.4179    1.1154   52.6217 O.2     1  ZINC000600609084   -0.5300
      2 C2         -7.2621    1.9453   51.7511 C.2     1  ZINC000600609084    0.5200
      3 C3         -6.2532    1.7089   50.6569 C.3     1  ZINC000600609084   -0.1500
      4 C4         -4.8664    2.1377   51.1404 C.3     1  ZINC000600609084    0.1300
      5 N5         -4.7078    3.5815   50.9504 N.am    1  ZINC000600609084   -1.1200
      6 S6         -3.2956    4.3248   51.3931 S.o2    1  ZINC000600609084    2.7000
      7 O7         -2.2487    3.6163   50.7441 O.2     1  ZINC000600609084   -0.9600
      8 O8         -3.5081    5.7202   51.2287 O.2     1  ZINC000600609084   -0.9500
      9 C9         -3.0831    4.0540   53.1211 C.ar    1  ZINC000600609084   -0.6700
     10 C10        -4.1414    4.3086   53.9909 C.ar    1  ZINC000600609084   -0.0400
     11 C11        -4.0104    4.1100   55.3312 C.ar    1  ZINC000600609084   -0.1200
     12 C12        -2.7912    3.6411   55.8486 C.ar    1  ZINC000600609084   -0.0100
     13 C13        -2.6182    3.4234   57.2262 C.ar    1  ZINC000600609084   -0.1200
     14 C14        -1.4229    2.9683   57.6912 C.ar    1  ZINC000600609084   -0.0900
     15 C15        -0.3642    2.7137   56.8211 C.ar    1  ZINC000600609084   -0.1200
     16 C16        -0.4950    2.9128   55.4812 C.ar    1  ZINC000600609084   -0.0900
     17 C17        -1.7145    3.3821   54.9636 C.ar    1  ZINC000600609084   -0.0800
     18 C18        -1.8892    3.5938   53.5858 C.ar    1  ZINC000600609084    0.0200
     19 N19        -7.9952    3.0762   51.7591 N.am    1  ZINC000600609084   -0.7200
     20 C20        -8.9759    3.3058   52.8228 C.3     1  ZINC000600609084    0.1400
     21 H21        -9.3521    2.3532   53.1956 H       1  ZINC000600609084    0.1000
     22 C22        -8.3318    4.1034   53.9704 C.3     1  ZINC000600609084   -0.1300
     23 C23        -9.1291    5.4182   54.0950 C.3     1  ZINC000600609084   -0.1300
     24 C24        -9.7658    5.6104   52.6962 C.3     1  ZINC000600609084   -0.1200
     25 C25       -10.1427    4.1627   52.2899 C.3     1  ZINC000600609084   -0.0700
     26 H26       -11.0803    3.8663   52.7602 H       1  ZINC000600609084    0.0900
     27 C27       -10.2459    4.0455   50.7910 C.ar    1  ZINC000600609084   -0.0600
     28 C28        -9.3095    4.6633   49.9833 C.ar    1  ZINC000600609084   -0.1100
     29 C29        -9.4042    4.5558   48.6084 C.ar    1  ZINC000600609084   -0.1200
     30 C30       -10.4351    3.8301   48.0412 C.ar    1  ZINC000600609084   -0.1200
     31 C31       -11.3710    3.2116   48.8490 C.ar    1  ZINC000600609084   -0.1200
     32 C32       -11.2738    3.3155   50.2239 C.ar    1  ZINC000600609084   -0.1100
     33 H33        -6.2371    0.6498   50.4001 H       1  ZINC000600609084    0.1000
     34 H34        -6.5277    2.2918   49.7776 H       1  ZINC000600609084    0.1000
     35 H35        -4.7597    1.8964   52.1980 H       1  ZINC000600609084    0.0900
     36 H36        -4.1030    1.6099   50.5686 H       1  ZINC000600609084    0.0800
     37 H37        -5.4299    4.1023   50.5653 H       1  ZINC000600609084    0.4200
     38 H38        -5.0795    4.6694   53.5958 H       1  ZINC000600609084    0.1400
     39 H39        -4.8393    4.3119   55.9935 H       1  ZINC000600609084    0.1400
     40 H40        -3.4296    3.6167   57.9124 H       1  ZINC000600609084    0.1300
     41 H41        -1.2926    2.8023   58.7503 H       1  ZINC000600609084    0.1300
     42 H42         0.5741    2.3534   57.2162 H       1  ZINC000600609084    0.1300
     43 H43         0.3342    2.7116   54.8190 H       1  ZINC000600609084    0.1300
     44 H44        -1.0792    3.3963   52.8992 H       1  ZINC000600609084    0.1500
     45 H45        -7.8734    3.7380   51.0605 H       1  ZINC000600609084    0.4000
     46 H46        -8.3962    3.5382   54.9001 H       1  ZINC000600609084    0.0800
     47 H47        -7.2895    4.3196   53.7358 H       1  ZINC000600609084    0.0700
     48 H48        -9.9031    5.3243   54.8567 H       1  ZINC000600609084    0.0700
     49 H49        -8.4621    6.2482   54.3278 H       1  ZINC000600609084    0.0700
     50 H50       -10.6551    6.2376   52.7593 H       1  ZINC000600609084    0.0700
     51 H51        -9.0432    6.0320   51.9975 H       1  ZINC000600609084    0.0700
     52 H52        -8.5042    5.2301   50.4264 H       1  ZINC000600609084    0.1200
     53 H53        -8.6731    5.0390   47.9774 H       1  ZINC000600609084    0.1200
     54 H54       -10.5095    3.7468   46.9670 H       1  ZINC000600609084    0.1200
     55 H55       -12.1766    2.6451   48.4058 H       1  ZINC000600609084    0.1200
     56 H56       -12.0051    2.8323   50.8550 H       1  ZINC000600609084    0.1200
@<TRIPOS>BOND
     1     1     2    2
     2     2     3    1
     3     2    19   am
     4     3     4    1
     5     3    33    1
     6     3    34    1
     7     4     5    1
     8     4    35    1
     9     4    36    1
    10     5     6   am
    11     5    37    1
    12     6     7    2
    13     6     8    2
    14     6     9    1
    15     9    18   ar
    16     9    10   ar
    17    10    11   ar
    18    10    38    1
    19    11    12   ar
    20    11    39    1
    21    12    17   ar
    22    12    13   ar
    23    13    14   ar
    24    13    40    1
    25    14    15   ar
    26    14    41    1
    27    15    16   ar
    28    15    42    1
    29    16    17   ar
    30    16    43    1
    31    17    18   ar
    32    18    44    1
    33    19    20    1
    34    19    45    1
    35    20    21    1
    36    20    25    1
    37    20    22    1
    38    22    23    1
    39    22    46    1
    40    22    47    1
    41    23    24    1
    42    23    48    1
    43    23    49    1
    44    24    25    1
    45    24    50    1
    46    24    51    1
    47    25    26    1
    48    25    27    1
    49    27    32   ar
    50    27    28   ar
    51    28    29   ar
    52    28    52    1
    53    29    30   ar
    54    29    53    1
    55    30    31   ar
    56    30    54    1
    57    31    32   ar
    58    31    55    1
    59    32    56    1
@<TRIPOS>SUBSTRUCTURE
     1 ZINC000600609084        1 TEMP              0 ****  ****    0 ROOT


##########                                Name:    ZINC000545381384
##########                DOCK_Rotatable_Bonds:                   6
##########                         Heavy_Atoms:                  30
##########                    Molecular_Weight:             405.543
##########                DOCK_Rotatable_Bonds:                   6
##########                       Formal_Charge:                0.05
##########                     HBond_Acceptors:                   6
##########                        HBond_Donors:                   1
##########                         Heavy_Atoms:                  30
##########                          Grid_Score:          -30.333307
##########                     Grid_vdw_energy:          -27.838831
##########                      Grid_es_energy:           -2.494476
##########           Internal_energy_repulsive:           15.079500

@<TRIPOS>MOLECULE
ZINC000545381384
 61 64 1 0 0
SMALL
USER_CHARGES


@<TRIPOS>ATOM
      1 C1          2.2896    2.0008   48.8380 C.3     1  ZINC000545381384   -0.2000
      2 C2          1.3444    3.1863   48.6327 C.3     1  ZINC000545381384    0.0500
      3 N3         -0.0398    2.7558   48.8702 N.3     1  ZINC000545381384   -0.5300
      4 C4         -0.8715    2.9719   47.6758 C.3     1  ZINC000545381384    0.0500
      5 C5         -2.1689    2.1799   47.8362 C.3     1  ZINC000545381384   -0.0700
      6 C6         -2.7998    2.4898   49.1725 C.ar    1  ZINC000545381384    0.1800
      7 C7         -2.0661    3.0834   50.1928 C.ar    1  ZINC000545381384   -0.0800
      8 C8         -0.6170    3.4547   50.0229 C.3     1  ZINC000545381384    0.0900
      9 C9         -2.6774    3.3517   51.4151 C.ar    1  ZINC000545381384   -0.0700
     10 C10        -1.9225    3.9791   52.5207 C.2     1  ZINC000545381384    0.5800
     11 O11        -1.9406    5.1865   52.6607 O.2     1  ZINC000545381384   -0.4800
     12 N12        -1.2143    3.2124   53.3733 N.am    1  ZINC000545381384   -0.6400
     13 C13        -0.5042    3.8035   54.4163 C.2     1  ZINC000545381384    0.3000
     14 C14        -1.0377    4.4569   55.4852 C.2     1  ZINC000545381384   -0.2700
     15 C15         0.0172    4.8933   56.2908 C.2     1  ZINC000545381384    0.1000
     16 C16        -0.1183    5.6614   57.5802 C.3     1  ZINC000545381384   -0.0300
     17 C17        -0.2040    4.6807   58.7515 C.3     1  ZINC000545381384   -0.0600
     18 C18        -1.2815    3.6337   58.4622 C.3     1  ZINC000545381384   -0.1500
     19 C19         1.1466    3.9855   58.9344 C.3     1  ZINC000545381384   -0.1400
     20 C20        -0.5627    5.4423   60.0291 C.3     1  ZINC000545381384   -0.1400
     21 N21         1.1426    4.5218   55.7364 N.2     1  ZINC000545381384   -0.2700
     22 N22         0.8466    3.8283   54.5559 N.pl3   1  ZINC000545381384   -0.3900
     23 C23         1.8207    3.2419   53.6321 C.3     1  ZINC000545381384    0.1000
     24 C24        -4.0424    3.0072   51.5693 C.ar    1  ZINC000545381384   -0.0700
     25 C25        -4.7286    3.2459   52.7668 C.ar    1  ZINC000545381384   -0.1100
     26 C26        -6.0425    2.8999   52.8709 C.ar    1  ZINC000545381384   -0.1000
     27 C27        -6.7127    2.3108   51.8006 C.ar    1  ZINC000545381384   -0.1000
     28 C28        -6.0761    2.0639   50.6238 C.ar    1  ZINC000545381384   -0.0900
     29 C29        -4.7193    2.4078   50.4783 C.ar    1  ZINC000545381384    0.1400
     30 N30        -4.0687    2.1781   49.3384 N.ar    1  ZINC000545381384   -0.4600
     31 H31         2.1694    1.6111   49.8489 H       1  ZINC000545381384    0.0600
     32 H32         2.0534    1.2186   48.1167 H       1  ZINC000545381384    0.0600
     33 H33         3.3195    2.3281   48.6950 H       1  ZINC000545381384    0.0700
     34 H34         1.6025    3.9820   49.3317 H       1  ZINC000545381384    0.0900
     35 H35         1.4403    3.5548   47.6113 H       1  ZINC000545381384    0.0800
     36 H36        -1.1005    4.0330   47.5763 H       1  ZINC000545381384    0.0500
     37 H37        -0.3381    2.6253   46.7908 H       1  ZINC000545381384    0.0900
     38 H38        -2.8596    2.4515   47.0380 H       1  ZINC000545381384    0.1000
     39 H39        -1.9514    1.1134   47.7772 H       1  ZINC000545381384    0.1000
     40 H40        -0.0669    3.1801   50.9230 H       1  ZINC000545381384    0.0900
     41 H41        -0.5365    4.5308   49.8694 H       1  ZINC000545381384    0.0700
     42 H42        -1.1988    2.2490   53.2610 H       1  ZINC000545381384    0.4100
     43 H43        -2.0894    4.6108   55.6762 H       1  ZINC000545381384    0.1700
     44 H44         0.7492    6.3082   57.7107 H       1  ZINC000545381384    0.0800
     45 H45        -1.0229    6.2688   57.5480 H       1  ZINC000545381384    0.0800
     46 H46        -1.0259    3.0912   57.5521 H       1  ZINC000545381384    0.0500
     47 H47        -1.3425    2.9350   59.2967 H       1  ZINC000545381384    0.0500
     48 H48        -2.2437    4.1289   58.3320 H       1  ZINC000545381384    0.0800
     49 H49         1.9142    4.7314   59.1405 H       1  ZINC000545381384    0.0600
     50 H50         1.0856    3.2869   59.7689 H       1  ZINC000545381384    0.0600
     51 H51         1.4022    3.4430   58.0242 H       1  ZINC000545381384    0.0600
     52 H52        -1.5250    5.9375   59.8988 H       1  ZINC000545381384    0.0500
     53 H53        -0.6238    4.7436   60.8635 H       1  ZINC000545381384    0.0500
     54 H54         0.2049    6.1882   60.2351 H       1  ZINC000545381384    0.0500
     55 H55         2.0307    2.2144   53.9295 H       1  ZINC000545381384    0.0800
     56 H56         1.4140    3.2515   52.6209 H       1  ZINC000545381384    0.0800
     57 H57         2.7422    3.8233   53.6586 H       1  ZINC000545381384    0.1000
     58 H58        -4.2192    3.7012   53.6031 H       1  ZINC000545381384    0.1300
     59 H59        -6.5709    3.0842   53.7946 H       1  ZINC000545381384    0.1300
     60 H60        -7.7543    2.0456   51.9071 H       1  ZINC000545381384    0.1400
     61 H61        -6.6101    1.6058   49.8044 H       1  ZINC000545381384    0.1400
@<TRIPOS>BOND
     1     1     2    1
     2     1    31    1
     3     1    32    1
     4     1    33    1
     5     2     3    1
     6     2    34    1
     7     2    35    1
     8     3     8    1
     9     3     4    1
    10     4     5    1
    11     4    36    1
    12     4    37    1
    13     5     6    1
    14     5    38    1
    15     5    39    1
    16     6    30   ar
    17     6     7   ar
    18     7     8    1
    19     7     9   ar
    20     8    40    1
    21     8    41    1
    22     9    10    1
    23     9    24   ar
    24    10    11    2
    25    10    12   am
    26    12    13    1
    27    12    42    1
    28    13    22    1
    29    13    14    2
    30    14    15    1
    31    14    43    1
    32    15    16    1
    33    15    21    2
    34    16    17    1
    35    16    44    1
    36    16    45    1
    37    17    18    1
    38    17    19    1
    39    17    20    1
    40    18    46    1
    41    18    47    1
    42    18    48    1
    43    19    49    1
    44    19    50    1
    45    19    51    1
    46    20    52    1
    47    20    53    1
    48    20    54    1
    49    21    22    1
    50    22    23    1
    51    23    55    1
    52    23    56    1
    53    23    57    1
    54    24    29   ar
    55    24    25   ar
    56    25    26   ar
    57    25    58    1
    58    26    27   ar
    59    26    59    1
    60    27    28   ar
    61    27    60    1
    62    28    29   ar
    63    28    61    1
    64    29    30   ar
@<TRIPOS>SUBSTRUCTURE
     1 ZINC000545381384        1 TEMP              0 ****  ****    0 ROOT


##########                                Name:    ZINC000790735374
##########                DOCK_Rotatable_Bonds:                   5
##########                         Heavy_Atoms:                  25
##########                    Molecular_Weight:             353.445
##########                DOCK_Rotatable_Bonds:                   5
##########                       Formal_Charge:                   0
##########                     HBond_Acceptors:                   6
##########                        HBond_Donors:                   1
##########                         Heavy_Atoms:                  25
##########                          Grid_Score:          -30.324854
##########                     Grid_vdw_energy:          -29.037592
##########                      Grid_es_energy:           -1.287262
##########           Internal_energy_repulsive:            7.792921

@<TRIPOS>MOLECULE
ZINC000790735374
 44 47 1 0 0
SMALL
USER_CHARGES


@<TRIPOS>ATOM
      1 O1         -2.9237    1.5140   48.1093 O.2     1  ZINC000790735374   -0.5100
      2 C2         -2.5878    2.5103   48.7139 C.2     1  ZINC000790735374    0.5000
      3 N3         -3.2416    2.8700   49.8362 N.am    1  ZINC000790735374   -0.7200
      4 C4         -4.3621    2.0610   50.3224 C.3     1  ZINC000790735374    0.1400
      5 C5         -4.8784    2.6439   51.6394 C.3     1  ZINC000790735374   -0.0300
      6 H6         -4.2215    2.3348   52.4525 H       1  ZINC000790735374    0.1100
      7 S7         -4.8877    4.4539   51.5312 S.3     1  ZINC000790735374   -0.2400
      8 C8         -5.9044    4.8788   52.9805 C.3     1  ZINC000790735374   -0.0800
      9 C9         -7.3004    4.3205   52.7471 C.3     1  ZINC000790735374   -0.0800
     10 C10        -7.3128    2.8575   52.4059 C.ar    1  ZINC000790735374   -0.0700
     11 C11        -8.5352    2.2182   52.6387 C.ar    1  ZINC000790735374   -0.1200
     12 C12        -8.7123    0.8831   52.3622 C.ar    1  ZINC000790735374   -0.1100
     13 C13        -7.6626    0.1508   51.8394 C.ar    1  ZINC000790735374   -0.1200
     14 C14        -6.4556    0.7722   51.6136 C.ar    1  ZINC000790735374   -0.1100
     15 C15        -6.2721    2.1287   51.9006 C.ar    1  ZINC000790735374   -0.0800
     16 C16        -1.4352    3.3425   48.2138 C.3     1  ZINC000790735374    0.0300
     17 H17        -1.6861    4.4031   48.2311 H       1  ZINC000790735374    0.1500
     18 C18        -0.1533    3.0632   49.0341 C.3     1  ZINC000790735374   -0.1400
     19 C19         0.5386    1.9936   48.2106 C.2     1  ZINC000790735374    0.1200
     20 C20         1.6415    1.1264   48.6701 C.ar    1  ZINC000790735374   -0.1000
     21 C21         2.3053    0.2824   47.7717 C.ar    1  ZINC000790735374   -0.0400
     22 C22         3.3326   -0.5101   48.2531 C.ar    1  ZINC000790735374   -0.1700
     23 C23         3.6677   -0.4439   49.5933 C.ar    1  ZINC000790735374    0.1200
     24 N24         3.0247    0.3611   50.4175 N.ar    1  ZINC000790735374   -0.4800
     25 C25         2.0442    1.1382   50.0069 C.ar    1  ZINC000790735374    0.1400
     26 N26        -0.0026    1.9720   47.0389 N.2     1  ZINC000790735374   -0.2700
     27 O27        -1.0349    2.9283   46.8919 O.3     1  ZINC000790735374   -0.1600
     28 H28        -2.9705    3.6646   50.3220 H       1  ZINC000790735374    0.4100
     29 H29        -5.1630    2.0680   49.5832 H       1  ZINC000790735374    0.0800
     30 H30        -4.0269    1.0366   50.4851 H       1  ZINC000790735374    0.0900
     31 H31        -5.4736    4.4336   53.8773 H       1  ZINC000790735374    0.0900
     32 H32        -5.9538    5.9620   53.0922 H       1  ZINC000790735374    0.1100
     33 H33        -7.8924    4.4733   53.6495 H       1  ZINC000790735374    0.0900
     34 H34        -7.7651    4.8731   51.9307 H       1  ZINC000790735374    0.0900
     35 H35        -9.3588    2.7865   53.0453 H       1  ZINC000790735374    0.1200
     36 H36        -9.6642    0.4097   52.5523 H       1  ZINC000790735374    0.1300
     37 H37        -7.7883   -0.8973   51.6111 H       1  ZINC000790735374    0.1300
     38 H38        -5.6352    0.2014   51.2044 H       1  ZINC000790735374    0.1300
     39 H39         0.4646    3.9584   49.1034 H       1  ZINC000790735374    0.1200
     40 H40        -0.4031    2.6866   50.0261 H       1  ZINC000790735374    0.1100
     41 H41         2.0226    0.2503   46.7299 H       1  ZINC000790735374    0.1500
     42 H42         3.8669   -1.1736   47.5893 H       1  ZINC000790735374    0.1500
     43 H43         4.4688   -1.0616   49.9716 H       1  ZINC000790735374    0.1600
     44 H44         1.5418    1.7841   50.7117 H       1  ZINC000790735374    0.1600
@<TRIPOS>BOND
     1     1     2    2
     2     2     3   am
     3     2    16    1
     4     3     4    1
     5     3    28    1
     6     4     5    1
     7     4    29    1
     8     4    30    1
     9     5     6    1
    10     5    15    1
    11     5     7    1
    12     7     8    1
    13     8     9    1
    14     8    31    1
    15     8    32    1
    16     9    10    1
    17     9    33    1
    18     9    34    1
    19    10    15   ar
    20    10    11   ar
    21    11    12   ar
    22    11    35    1
    23    12    13   ar
    24    12    36    1
    25    13    14   ar
    26    13    37    1
    27    14    15   ar
    28    14    38    1
    29    16    17    1
    30    16    27    1
    31    16    18    1
    32    18    19    1
    33    18    39    1
    34    18    40    1
    35    19    20    1
    36    19    26    2
    37    20    25   ar
    38    20    21   ar
    39    21    22   ar
    40    21    41    1
    41    22    23   ar
    42    22    42    1
    43    23    24   ar
    44    23    43    1
    45    24    25   ar
    46    25    44    1
    47    26    27    1
@<TRIPOS>SUBSTRUCTURE
     1 ZINC000790735374        1 TEMP              0 ****  ****    0 ROOT


##########                                Name:    ZINC000369046711
##########                DOCK_Rotatable_Bonds:                   8
##########                         Heavy_Atoms:                  26
##########                    Molecular_Weight:             367.467
##########                DOCK_Rotatable_Bonds:                   8
##########                       Formal_Charge:        -7.63685e-07
##########                     HBond_Acceptors:                   8
##########                        HBond_Donors:                   1
##########                         Heavy_Atoms:                  26
##########                          Grid_Score:          -30.307762
##########                     Grid_vdw_energy:          -29.841974
##########                      Grid_es_energy:           -0.465788
##########           Internal_energy_repulsive:           27.007189

@<TRIPOS>MOLECULE
ZINC000369046711
 56 58 1 0 0
SMALL
USER_CHARGES


@<TRIPOS>ATOM
      1 C1         -6.0248    3.6306   52.7608 C.3     1  ZINC000369046711   -0.1800
      2 C2         -6.5287    2.9256   51.4999 C.3     1  ZINC000369046711    0.1400
      3 C3         -6.7032    1.4326   51.7856 C.3     1  ZINC000369046711   -0.1800
      4 C4         -7.8728    3.5256   51.0828 C.3     1  ZINC000369046711   -0.1400
      5 O5         -5.5655    3.1038   50.4280 O.3     1  ZINC000369046711   -0.3700
      6 C6         -4.2659    2.9425   50.7409 C.2     1  ZINC000369046711    0.6500
      7 O7         -3.9409    2.1355   51.5891 O.2     1  ZINC000369046711   -0.5700
      8 N8         -3.3257    3.6763   50.1133 N.am    1  ZINC000369046711   -0.7100
      9 C9         -1.9115    3.4995   50.4525 C.3     1  ZINC000369046711    0.1800
     10 H10        -1.8375    3.0353   51.4359 H       1  ZINC000369046711    0.0900
     11 C11        -1.2345    4.8690   50.4957 C.3     1  ZINC000369046711   -0.1300
     12 C12        -1.3383    5.4960   49.1004 C.3     1  ZINC000369046711   -0.1200
     13 C13        -0.5463    4.6317   48.1234 C.3     1  ZINC000369046711   -0.1200
     14 C14        -1.1355    3.2224   48.0343 C.3     1  ZINC000369046711   -0.1000
     15 H15        -2.0694    3.2040   47.4726 H       1  ZINC000369046711    0.0900
     16 C16        -0.0410    2.3285   47.3897 C.3     1  ZINC000369046711    0.0400
     17 N17         0.7516    1.7551   48.4950 N.3     1  ZINC000369046711   -0.5200
     18 C18         2.1678    2.1262   48.3750 C.3     1  ZINC000369046711    0.1200
     19 C19         2.9350    1.5651   49.5445 C.2     1  ZINC000369046711    0.2900
     20 N20         3.3645    2.2428   50.5779 N.2     1  ZINC000369046711   -0.5400
     21 C21         4.0026    1.4292   51.4183 C.2     1  ZINC000369046711    0.2000
     22 N22         3.9879    0.2172   50.9291 N.2     1  ZINC000369046711   -0.3200
     23 N23         3.2923    0.2798   49.7107 N.pl3   1  ZINC000369046711   -0.3700
     24 C24         3.0188   -0.8326   48.7975 C.3     1  ZINC000369046711    0.1000
     25 C25         2.7057   -2.0922   49.6075 C.3     1  ZINC000369046711    0.0500
     26 F26         1.5838   -1.8630   50.4112 F       1  ZINC000369046711   -0.2000
     27 C27         0.1844    2.2315   49.7790 C.3     1  ZINC000369046711    0.0500
     28 C28        -1.2708    2.5938   49.4319 C.3     1  ZINC000369046711   -0.1000
     29 H29        -1.8597    1.6796   49.3569 H       1  ZINC000369046711    0.0900
     30 H30        -5.0671    3.2031   53.0580 H       1  ZINC000369046711    0.0900
     31 H31        -5.9004    4.6941   52.5573 H       1  ZINC000369046711    0.0600
     32 H32        -6.7478    3.4967   53.5654 H       1  ZINC000369046711    0.0700
     33 H33        -7.4263    1.2988   52.5902 H       1  ZINC000369046711    0.0700
     34 H34        -7.0623    0.9303   50.8872 H       1  ZINC000369046711    0.0600
     35 H35        -5.7456    1.0052   52.0827 H       1  ZINC000369046711    0.0900
     36 H36        -7.7485    4.5892   50.8793 H       1  ZINC000369046711    0.0700
     37 H37        -8.2318    3.0233   50.1845 H       1  ZINC000369046711    0.0700
     38 H38        -8.5958    3.3917   51.8874 H       1  ZINC000369046711    0.0800
     39 H39        -3.5853    4.3214   49.4370 H       1  ZINC000369046711    0.4000
     40 H40        -1.7375    5.5055   51.2236 H       1  ZINC000369046711    0.0700
     41 H41        -0.1860    4.7528   50.7700 H       1  ZINC000369046711    0.0800
     42 H42        -2.3831    5.5348   48.7922 H       1  ZINC000369046711    0.0600
     43 H43        -0.9229    6.5036   49.1189 H       1  ZINC000369046711    0.0700
     44 H44        -0.5713    5.0931   47.1361 H       1  ZINC000369046711    0.0700
     45 H45         0.4880    4.5664   48.4609 H       1  ZINC000369046711    0.0600
     46 H46        -0.5055    1.5298   46.8114 H       1  ZINC000369046711    0.0800
     47 H47         0.5998    2.9307   46.7455 H       1  ZINC000369046711    0.0800
     48 H48         2.5722    1.7213   47.4473 H       1  ZINC000369046711    0.0800
     49 H49         2.2594    3.2123   48.3679 H       1  ZINC000369046711    0.1000
     50 H50         4.4586    1.7236   52.3521 H       1  ZINC000369046711    0.2200
     51 H51         2.1646   -0.5840   48.1676 H       1  ZINC000369046711    0.1200
     52 H52         3.8925   -1.0114   48.1709 H       1  ZINC000369046711    0.1100
     53 H53         2.5029   -2.9201   48.9281 H       1  ZINC000369046711    0.0900
     54 H54         3.5596   -2.3404   50.2379 H       1  ZINC000369046711    0.0800
     55 H55         0.2141    1.4393   50.5270 H       1  ZINC000369046711    0.0900
     56 H56         0.7227    3.1114   50.1313 H       1  ZINC000369046711    0.0600
@<TRIPOS>BOND
     1     1     2    1
     2     1    30    1
     3     1    31    1
     4     1    32    1
     5     2     3    1
     6     2     4    1
     7     2     5    1
     8     3    33    1
     9     3    34    1
    10     3    35    1
    11     4    36    1
    12     4    37    1
    13     4    38    1
    14     5     6    1
    15     6     7    2
    16     6     8   am
    17     8     9    1
    18     8    39    1
    19     9    10    1
    20     9    28    1
    21     9    11    1
    22    11    12    1
    23    11    40    1
    24    11    41    1
    25    12    13    1
    26    12    42    1
    27    12    43    1
    28    13    14    1
    29    13    44    1
    30    13    45    1
    31    14    15    1
    32    14    28    1
    33    14    16    1
    34    16    17    1
    35    16    46    1
    36    16    47    1
    37    17    18    1
    38    17    27    1
    39    18    19    1
    40    18    48    1
    41    18    49    1
    42    19    23    1
    43    19    20    2
    44    20    21    1
    45    21    22    2
    46    21    50    1
    47    22    23    1
    48    23    24    1
    49    24    25    1
    50    24    51    1
    51    24    52    1
    52    25    26    1
    53    25    53    1
    54    25    54    1
    55    27    28    1
    56    27    55    1
    57    27    56    1
    58    28    29    1
@<TRIPOS>SUBSTRUCTURE
     1 ZINC000369046711        1 TEMP              0 ****  ****    0 ROOT


##########                                Name:    ZINC001312809190
##########                DOCK_Rotatable_Bonds:                   6
##########                         Heavy_Atoms:                  29
##########                    Molecular_Weight:             395.501
##########                DOCK_Rotatable_Bonds:                   6
##########                       Formal_Charge:           0.0199995
##########                     HBond_Acceptors:                   6
##########                        HBond_Donors:                   1
##########                         Heavy_Atoms:                  29
##########                          Grid_Score:          -30.304815
##########                     Grid_vdw_energy:          -28.590185
##########                      Grid_es_energy:           -1.714629
##########           Internal_energy_repulsive:           32.093964

@<TRIPOS>MOLECULE
ZINC001312809190
 58 61 1 0 0
SMALL
USER_CHARGES


@<TRIPOS>ATOM
      1 C1          4.6037    0.7617   57.9278 C.3     1  ZINC001312809190    0.0300
      2 O2          3.6376    1.7317   57.5182 O.3     1  ZINC001312809190   -0.3200
      3 C3          2.4846    1.7948   58.2349 C.ar    1  ZINC001312809190    0.1300
      4 C4          2.2943    0.9525   59.3203 C.ar    1  ZINC001312809190   -0.2100
      5 C5          1.1214    1.0190   60.0476 C.ar    1  ZINC001312809190   -0.0800
      6 C6          0.1377    1.9236   59.6939 C.ar    1  ZINC001312809190   -0.1300
      7 C7          0.3249    2.7641   58.6118 C.ar    1  ZINC001312809190   -0.0500
      8 C8         -0.7497    3.7488   58.2287 C.3     1  ZINC001312809190    0.1200
      9 H9         -0.6388    4.6566   58.8218 H       1  ZINC001312809190    0.0500
     10 C10        -2.1246    3.1317   58.4930 C.3     1  ZINC001312809190   -0.1400
     11 N11        -0.6266    4.0778   56.8022 N.3     1  ZINC001312809190   -0.5300
     12 C12        -1.3872    5.2909   56.4742 C.3     1  ZINC001312809190    0.0300
     13 C13        -1.0892    5.7013   55.0282 C.3     1  ZINC001312809190    0.1400
     14 N14        -1.3488    4.5486   54.1524 N.am    1  ZINC001312809190   -0.6300
     15 C15        -2.1335    4.6702   53.0634 C.2     1  ZINC001312809190    0.7100
     16 O16        -2.6373    5.7434   52.7939 O.2     1  ZINC001312809190   -0.5800
     17 N17        -2.3595    3.6021   52.2731 N.am    1  ZINC001312809190   -0.7300
     18 C18        -3.2123    3.7342   51.0894 C.3     1  ZINC001312809190    0.1800
     19 H19        -3.7575    4.6779   51.1078 H       1  ZINC001312809190    0.1200
     20 C20        -2.3977    3.6037   49.8170 C.ar    1  ZINC001312809190   -0.1900
     21 C21        -1.2029    4.1633   49.4227 C.ar    1  ZINC001312809190   -0.0500
     22 C22        -0.6724    3.8575   48.1816 C.ar    1  ZINC001312809190   -0.1500
     23 C23        -1.3459    2.9900   47.3420 C.ar    1  ZINC001312809190   -0.0800
     24 C24        -2.5450    2.4311   47.7337 C.ar    1  ZINC001312809190   -0.1400
     25 C25        -3.0873    2.7361   48.9793 C.ar    1  ZINC001312809190    0.1100
     26 O26        -4.2497    2.3182   49.5517 O.3     1  ZINC001312809190   -0.2900
     27 C27        -4.1845    2.5364   50.9719 C.3     1  ZINC001312809190    0.0800
     28 H28        -3.7803    1.6603   51.4790 H       1  ZINC001312809190    0.0900
     29 C29        -5.5636    2.8944   51.5291 C.3     1  ZINC001312809190   -0.1500
     30 C30        -0.7290    3.2598   54.4963 C.3     1  ZINC001312809190    0.1200
     31 C31        -1.0412    2.9455   55.9632 C.3     1  ZINC001312809190    0.0400
     32 C32         1.4982    2.7059   57.8854 C.ar    1  ZINC001312809190   -0.1500
     33 H33         5.4738    0.8169   57.2737 H       1  ZINC001312809190    0.1000
     34 H34         4.9079    0.9630   58.9550 H       1  ZINC001312809190    0.0600
     35 H35         4.1662   -0.2348   57.8671 H       1  ZINC001312809190    0.0600
     36 H36         3.0621    0.2450   59.5966 H       1  ZINC001312809190    0.1300
     37 H37         0.9728    0.3634   60.8928 H       1  ZINC001312809190    0.1300
     38 H38        -0.7785    1.9738   60.2634 H       1  ZINC001312809190    0.1300
     39 H39        -2.2355    2.2239   57.8999 H       1  ZINC001312809190    0.0700
     40 H40        -2.2160    2.8876   59.5513 H       1  ZINC001312809190    0.0600
     41 H41        -2.9018    3.8440   58.2159 H       1  ZINC001312809190    0.0600
     42 H42        -2.4535    5.0923   56.5835 H       1  ZINC001312809190    0.0400
     43 H43        -1.0959    6.0963   57.1484 H       1  ZINC001312809190    0.1000
     44 H44        -1.7355    6.5312   54.7426 H       1  ZINC001312809190    0.1000
     45 H45        -0.0446    6.0001   54.9404 H       1  ZINC001312809190    0.0700
     46 H46        -1.9573    2.7459   52.4880 H       1  ZINC001312809190    0.4000
     47 H47        -0.6802    4.8408   50.0816 H       1  ZINC001312809190    0.1200
     48 H48         0.2645    4.2953   47.8700 H       1  ZINC001312809190    0.1300
     49 H49        -0.9315    2.7489   46.3744 H       1  ZINC001312809190    0.1300
     50 H50        -3.0650    1.7546   47.0715 H       1  ZINC001312809190    0.1300
     51 H51        -6.2524    2.0682   51.3529 H       1  ZINC001312809190    0.0800
     52 H52        -5.4856    3.0803   52.6003 H       1  ZINC001312809190    0.0800
     53 H53        -5.9356    3.7899   51.0311 H       1  ZINC001312809190    0.0700
     54 H54        -1.1372    2.4756   53.8588 H       1  ZINC001312809190    0.0800
     55 H55         0.3502    3.3240   54.3573 H       1  ZINC001312809190    0.0800
     56 H56        -0.4990    2.0501   56.2667 H       1  ZINC001312809190    0.0900
     57 H57        -2.1123    2.7797   56.0796 H       1  ZINC001312809190    0.0400
     58 H58         1.6440    3.3627   57.0406 H       1  ZINC001312809190    0.1300
@<TRIPOS>BOND
     1     1     2    1
     2     1    33    1
     3     1    34    1
     4     1    35    1
     5     2     3    1
     6     3    32   ar
     7     3     4   ar
     8     4     5   ar
     9     4    36    1
    10     5     6   ar
    11     5    37    1
    12     6     7   ar
    13     6    38    1
    14     7     8    1
    15     7    32   ar
    16     8     9    1
    17     8    10    1
    18     8    11    1
    19    10    39    1
    20    10    40    1
    21    10    41    1
    22    11    31    1
    23    11    12    1
    24    12    13    1
    25    12    42    1
    26    12    43    1
    27    13    14    1
    28    13    44    1
    29    13    45    1
    30    14    15   am
    31    14    30    1
    32    15    16    2
    33    15    17   am
    34    17    18    1
    35    17    46    1
    36    18    19    1
    37    18    27    1
    38    18    20    1
    39    20    25   ar
    40    20    21   ar
    41    21    22   ar
    42    21    47    1
    43    22    23   ar
    44    22    48    1
    45    23    24   ar
    46    23    49    1
    47    24    25   ar
    48    24    50    1
    49    25    26    1
    50    26    27    1
    51    27    28    1
    52    27    29    1
    53    29    51    1
    54    29    52    1
    55    29    53    1
    56    30    31    1
    57    30    54    1
    58    30    55    1
    59    31    56    1
    60    31    57    1
    61    32    58    1
@<TRIPOS>SUBSTRUCTURE
     1 ZINC001312809190        1 TEMP              0 ****  ****    0 ROOT


##########                                Name:    ZINC000768148687
##########                DOCK_Rotatable_Bonds:                   8
##########                         Heavy_Atoms:                  25
##########                    Molecular_Weight:             371.307
##########                DOCK_Rotatable_Bonds:                   8
##########                       Formal_Charge:         2.98023e-08
##########                     HBond_Acceptors:                  11
##########                        HBond_Donors:                   0
##########                         Heavy_Atoms:                  25
##########                          Grid_Score:          -30.302284
##########                     Grid_vdw_energy:          -29.609196
##########                      Grid_es_energy:           -0.693089
##########           Internal_energy_repulsive:            8.848026

@<TRIPOS>MOLECULE
ZINC000768148687
 43 44 1 0 0
SMALL
USER_CHARGES


@<TRIPOS>ATOM
      1 C1         -6.6830    0.8964   51.4930 C.3     1  ZINC000768148687   -0.1800
      2 C2         -6.8175    2.3321   50.9817 C.3     1  ZINC000768148687    0.1100
      3 N3         -5.4865    2.8803   50.7094 N.pl3   1  ZINC000768148687   -0.3100
      4 N4         -4.5466    2.3426   49.8231 N.2     1  ZINC000768148687   -0.2000
      5 C5         -3.4780    3.0903   49.8351 C.2     1  ZINC000768148687    0.0200
      6 C6         -2.2290    2.8631   49.0231 C.3     1  ZINC000768148687    0.5500
      7 F7         -1.2329    2.3202   49.8418 F       1  ZINC000768148687   -0.1600
      8 F8         -2.5074    1.9766   47.9773 F       1  ZINC000768148687   -0.1600
      9 F9         -1.7870    4.0815   48.4965 F       1  ZINC000768148687   -0.1500
     10 C10        -3.6968    4.1510   50.7433 C.2     1  ZINC000768148687   -0.1800
     11 C11        -2.7514    5.2324   51.0692 C.2     1  ZINC000768148687    0.5300
     12 O12        -2.8121    6.2916   50.4766 O.2     1  ZINC000768148687   -0.4700
     13 O13        -1.8191    5.0473   52.0245 O.3     1  ZINC000768148687   -0.3400
     14 C14        -2.1641    4.1574   53.1186 C.3     1  ZINC000768148687    0.0200
     15 C15        -1.0524    4.1863   54.1693 C.3     1  ZINC000768148687    0.0600
     16 N16        -1.4479    3.3681   55.3235 N.3     1  ZINC000768148687   -0.5300
     17 C17        -2.2911    4.1372   56.2503 C.3     1  ZINC000768148687    0.0100
     18 C18        -2.7285    3.2318   57.4048 C.3     1  ZINC000768148687    0.0600
     19 O19        -1.5696    2.6934   58.0470 O.3     1  ZINC000768148687   -0.3800
     20 C20        -0.7262    1.9377   57.1736 C.3     1  ZINC000768148687    0.0600
     21 C21        -0.2684    2.8300   56.0168 C.3     1  ZINC000768148687    0.0100
     22 C22        -4.9657    3.9863   51.2637 C.2     1  ZINC000768148687    0.0600
     23 C23        -5.6377    4.8784   52.2753 C.3     1  ZINC000768148687    0.3400
     24 F24        -6.8304    5.3756   51.7392 F       1  ZINC000768148687   -0.1700
     25 F25        -5.9172    4.1435   53.4324 F       1  ZINC000768148687   -0.1800
     26 H26        -7.6733    0.4885   51.6955 H       1  ZINC000768148687    0.0900
     27 H27        -6.1865    0.2868   50.7379 H       1  ZINC000768148687    0.0700
     28 H28        -6.0932    0.8908   52.4096 H       1  ZINC000768148687    0.0700
     29 H29        -7.4072    2.3377   50.0651 H       1  ZINC000768148687    0.1100
     30 H30        -7.3139    2.9417   51.7368 H       1  ZINC000768148687    0.1200
     31 H31        -3.1003    4.4841   53.5712 H       1  ZINC000768148687    0.0800
     32 H32        -2.2789    3.1422   52.7389 H       1  ZINC000768148687    0.0800
     33 H33        -0.1345    3.7865   53.7382 H       1  ZINC000768148687    0.1100
     34 H34        -0.8845    5.2135   54.4926 H       1  ZINC000768148687    0.0900
     35 H35        -1.7237    4.9805   56.6439 H       1  ZINC000768148687    0.0500
     36 H36        -3.1711    4.5045   55.7222 H       1  ZINC000768148687    0.0900
     37 H37        -3.3064    3.8124   58.1238 H       1  ZINC000768148687    0.1000
     38 H38        -3.3410    2.4178   57.0170 H       1  ZINC000768148687    0.0600
     39 H39         0.1440    1.5824   57.7254 H       1  ZINC000768148687    0.1000
     40 H40        -1.2804    1.0862   56.7791 H       1  ZINC000768148687    0.0600
     41 H41         0.3279    2.2430   55.3184 H       1  ZINC000768148687    0.0800
     42 H42         0.3312    3.6524   56.4068 H       1  ZINC000768148687    0.0700
     43 H43        -4.9767    5.7090   52.5232 H       1  ZINC000768148687    0.1500
@<TRIPOS>BOND
     1     1     2    1
     2     1    26    1
     3     1    27    1
     4     1    28    1
     5     2     3    1
     6     2    29    1
     7     2    30    1
     8     3    22    1
     9     3     4    1
    10     4     5    2
    11     5     6    1
    12     5    10    1
    13     6     7    1
    14     6     8    1
    15     6     9    1
    16    10    11    1
    17    10    22    2
    18    11    12    2
    19    11    13    1
    20    13    14    1
    21    14    15    1
    22    14    31    1
    23    14    32    1
    24    15    16    1
    25    15    33    1
    26    15    34    1
    27    16    21    1
    28    16    17    1
    29    17    18    1
    30    17    35    1
    31    17    36    1
    32    18    19    1
    33    18    37    1
    34    18    38    1
    35    19    20    1
    36    20    21    1
    37    20    39    1
    38    20    40    1
    39    21    41    1
    40    21    42    1
    41    22    23    1
    42    23    24    1
    43    23    25    1
    44    23    43    1
@<TRIPOS>SUBSTRUCTURE
     1 ZINC000768148687        1 TEMP              0 ****  ****    0 ROOT


##########                                Name:    ZINC001707162141
##########                DOCK_Rotatable_Bonds:                   9
##########                         Heavy_Atoms:                  25
##########                    Molecular_Weight:               344.5
##########                DOCK_Rotatable_Bonds:                   9
##########                       Formal_Charge:          -0.0299999
##########                     HBond_Acceptors:                   5
##########                        HBond_Donors:                   1
##########                         Heavy_Atoms:                  25
##########                          Grid_Score:          -30.285473
##########                     Grid_vdw_energy:          -29.370136
##########                      Grid_es_energy:           -0.915337
##########           Internal_energy_repulsive:           80.995789

@<TRIPOS>MOLECULE
ZINC001707162141
 57 59 1 0 0
SMALL
USER_CHARGES


@<TRIPOS>ATOM
      1 C1          0.7307    1.9450   48.7676 C.3     1  ZINC001707162141   -0.1800
      2 C2         -0.2468    2.3887   47.6774 C.3     1  ZINC001707162141    0.1700
      3 H3         -0.9622    1.5894   47.4837 H       1  ZINC001707162141    0.1000
      4 N4         -0.9643    3.5907   48.1226 N.3     1  ZINC001707162141   -0.6400
      5 C5         -2.1569    3.2333   48.9026 C.3     1  ZINC001707162141    0.0700
      6 C6         -2.4018    4.2961   49.9756 C.3     1  ZINC001707162141    0.1500
      7 H7         -2.6570    5.2432   49.5004 H       1  ZINC001707162141    0.0700
      8 C8         -1.1388    4.4684   50.8254 C.3     1  ZINC001707162141   -0.1200
      9 C9         -1.4331    5.4282   51.9805 C.3     1  ZINC001707162141   -0.0900
     10 H10        -1.7614    6.3876   51.5806 H       1  ZINC001707162141    0.0700
     11 C11        -0.1643    5.6298   52.8115 C.3     1  ZINC001707162141   -0.1500
     12 C12        -2.5346    4.8411   52.8659 C.3     1  ZINC001707162141   -0.1300
     13 C13        -3.8133    4.6729   52.0393 C.3     1  ZINC001707162141    0.1100
     14 N14        -3.5044    3.8701   50.8482 N.am    1  ZINC001707162141   -0.6100
     15 C15        -4.2185    2.7635   50.5618 C.2     1  ZINC001707162141    0.5100
     16 O16        -3.9537    2.1092   49.5756 O.2     1  ZINC001707162141   -0.4800
     17 C17        -5.3462    2.3392   51.4670 C.3     1  ZINC001707162141   -0.1400
     18 C18        -5.9641    1.0431   50.9388 C.3     1  ZINC001707162141   -0.0900
     19 C19        -6.9414    0.4846   51.9751 C.3     1  ZINC001707162141   -0.0900
     20 C20        -8.0752    1.4871   52.1990 C.3     1  ZINC001707162141   -0.1500
     21 C21        -8.1275    2.2046   53.5494 C.3     1  ZINC001707162141   -0.1800
     22 C22        -9.1532    1.1181   53.2202 C.3     1  ZINC001707162141   -0.1800
     23 C23         0.5156    2.6976   46.4146 C.ar    1  ZINC001707162141    0.3500
     24 N24         1.7611    2.2824   46.2996 N.ar    1  ZINC001707162141   -0.5000
     25 C25         2.4597    2.5301   45.2033 C.ar    1  ZINC001707162141    0.1500
     26 C26         1.8681    3.2456   44.1742 C.ar    1  ZINC001707162141   -0.2400
     27 C27         0.5585    3.6702   44.3344 C.ar    1  ZINC001707162141    0.1500
     28 N28        -0.0793    3.3803   45.4570 N.ar    1  ZINC001707162141   -0.5200
     29 H29         0.1794    1.7217   49.6810 H       1  ZINC001707162141    0.0600
     30 H30         1.2631    1.0533   48.4373 H       1  ZINC001707162141    0.0600
     31 H31         1.4460    2.7444   48.9614 H       1  ZINC001707162141    0.0600
     32 H32        -0.3569    4.2001   48.6496 H       1  ZINC001707162141    0.3300
     33 H33        -3.0211    3.1794   48.2406 H       1  ZINC001707162141    0.1000
     34 H34        -2.0028    2.2650   49.3787 H       1  ZINC001707162141    0.0200
     35 H35        -0.8343    3.5011   51.2247 H       1  ZINC001707162141    0.0700
     36 H36        -0.3381    4.8762   50.2085 H       1  ZINC001707162141    0.0700
     37 H37         0.1639    4.6706   53.2120 H       1  ZINC001707162141    0.0500
     38 H38         0.6203    6.0480   52.1811 H       1  ZINC001707162141    0.0600
     39 H39        -0.3734    6.3143   53.6336 H       1  ZINC001707162141    0.0600
     40 H40        -2.7272    5.5141   53.7014 H       1  ZINC001707162141    0.0700
     41 H41        -2.2168    3.8701   53.2461 H       1  ZINC001707162141    0.0700
     42 H42        -4.1826    5.6520   51.7343 H       1  ZINC001707162141    0.0600
     43 H43        -4.5703    4.1644   52.6364 H       1  ZINC001707162141    0.0800
     44 H44        -4.9618    2.1746   52.4735 H       1  ZINC001707162141    0.0800
     45 H45        -6.1060    3.1204   51.4914 H       1  ZINC001707162141    0.0800
     46 H46        -6.4967    1.2466   50.0097 H       1  ZINC001707162141    0.0700
     47 H47        -5.1754    0.3139   50.7531 H       1  ZINC001707162141    0.0700
     48 H48        -7.3550   -0.4570   51.6140 H       1  ZINC001707162141    0.0600
     49 H49        -6.4162    0.3141   52.9149 H       1  ZINC001707162141    0.0600
     50 H50        -8.3875    2.0483   51.3183 H       1  ZINC001707162141    0.1000
     51 H51        -7.3540    1.9623   54.2782 H       1  ZINC001707162141    0.0900
     52 H52        -8.4740    3.2380   53.5572 H       1  ZINC001707162141    0.0900
     53 H53       -10.1744    1.4367   53.0114 H       1  ZINC001707162141    0.0900
     54 H54        -9.0545    0.1611   53.7324 H       1  ZINC001707162141    0.0900
     55 H55         3.4786    2.1836   45.1137 H       1  ZINC001707162141    0.1600
     56 H56         2.4143    3.4667   43.2691 H       1  ZINC001707162141    0.1400
     57 H57         0.0654    4.2303   43.5537 H       1  ZINC001707162141    0.1600
@<TRIPOS>BOND
     1     1     2    1
     2     1    29    1
     3     1    30    1
     4     1    31    1
     5     2     3    1
     6     2     4    1
     7     2    23    1
     8     4     5    1
     9     4    32    1
    10     5     6    1
    11     5    33    1
    12     5    34    1
    13     6     7    1
    14     6    14    1
    15     6     8    1
    16     8     9    1
    17     8    35    1
    18     8    36    1
    19     9    10    1
    20     9    11    1
    21     9    12    1
    22    11    37    1
    23    11    38    1
    24    11    39    1
    25    12    13    1
    26    12    40    1
    27    12    41    1
    28    13    14    1
    29    13    42    1
    30    13    43    1
    31    14    15   am
    32    15    16    2
    33    15    17    1
    34    17    18    1
    35    17    44    1
    36    17    45    1
    37    18    19    1
    38    18    46    1
    39    18    47    1
    40    19    20    1
    41    19    48    1
    42    19    49    1
    43    20    22    1
    44    20    21    1
    45    20    50    1
    46    21    22    1
    47    21    51    1
    48    21    52    1
    49    22    53    1
    50    22    54    1
    51    23    28   ar
    52    23    24   ar
    53    24    25   ar
    54    25    26   ar
    55    25    55    1
    56    26    27   ar
    57    26    56    1
    58    27    28   ar
    59    27    57    1
@<TRIPOS>SUBSTRUCTURE
     1 ZINC001707162141        1 TEMP              0 ****  ****    0 ROOT


##########                                Name:    ZINC000124554441
##########                DOCK_Rotatable_Bonds:                   9
##########                         Heavy_Atoms:                  26
##########                    Molecular_Weight:             375.898
##########                DOCK_Rotatable_Bonds:                   9
##########                       Formal_Charge:         -0.00999991
##########                     HBond_Acceptors:                   6
##########                        HBond_Donors:                   1
##########                         Heavy_Atoms:                  26
##########                          Grid_Score:          -30.274630
##########                     Grid_vdw_energy:          -29.434305
##########                      Grid_es_energy:           -0.840324
##########           Internal_energy_repulsive:           15.955342

@<TRIPOS>MOLECULE
ZINC000124554441
 52 53 1 0 0
SMALL
USER_CHARGES


@<TRIPOS>ATOM
      1 C1          2.1984   -2.0682   49.9509 C.3     1  ZINC000124554441   -0.1500
      2 C2          3.2341   -1.0554   49.4583 C.3     1  ZINC000124554441   -0.1300
      3 C3          2.5453   -0.0057   48.5841 C.3     1  ZINC000124554441   -0.1200
      4 C4          3.5604    1.0640   48.1763 C.3     1  ZINC000124554441   -0.1200
      5 C5          2.9434    1.9730   47.1114 C.3     1  ZINC000124554441   -0.1300
      6 C6          2.3827    3.2311   47.7774 C.3     1  ZINC000124554441    0.1200
      7 N7          1.1738    2.8875   48.5303 N.am    1  ZINC000124554441   -0.7300
      8 C8          0.8174    3.6204   49.6038 C.2     1  ZINC000124554441    0.5200
      9 O9          1.4982    4.5635   49.9473 O.2     1  ZINC000124554441   -0.5300
     10 C10        -0.4271    3.2681   50.3772 C.3     1  ZINC000124554441   -0.1200
     11 H11        -0.4753    2.1881   50.5165 H       1  ZINC000124554441    0.1000
     12 C12        -0.3924    3.9582   51.7427 C.3     1  ZINC000124554441   -0.1000
     13 C13        -1.6399    3.5749   52.5419 C.3     1  ZINC000124554441   -0.1400
     14 C14        -2.8881    4.0503   51.7915 C.3     1  ZINC000124554441    0.0900
     15 N15        -2.8551    3.5069   50.4268 N.am    1  ZINC000124554441   -0.6000
     16 C16        -3.8998    2.8083   49.9403 C.2     1  ZINC000124554441    0.5600
     17 O17        -3.8603    2.3639   48.8098 O.2     1  ZINC000124554441   -0.5200
     18 C18        -5.0948    2.5822   50.7824 C.ar    1  ZINC000124554441   -0.0900
     19 C19        -5.8396    3.6696   51.2433 C.ar    1  ZINC000124554441   -0.0900
     20 C20        -6.9523    3.4605   52.0274 C.ar    1  ZINC000124554441   -0.0600
     21 C21        -7.3363    2.1602   52.3625 C.ar    1  ZINC000124554441    0.0100
     22 C22        -8.4933    1.9426   53.1778 C.1     1  ZINC000124554441    0.2400
     23 N23        -9.4112    1.7700   53.8246 N.1     1  ZINC000124554441   -0.3800
     24 C24        -6.5908    1.0709   51.9013 C.ar    1  ZINC000124554441    0.0000
     25 Cl25       -7.0673   -0.5459   52.3167 Cl      1  ZINC000124554441   -0.0400
     26 C26        -5.4806    1.2815   51.1113 C.ar    1  ZINC000124554441   -0.0600
     27 C27        -1.6615    3.7393   49.6020 C.3     1  ZINC000124554441    0.1200
     28 H28         1.4355   -1.5529   50.5347 H       1  ZINC000124554441    0.0500
     29 H29         1.7326   -2.5569   49.0952 H       1  ZINC000124554441    0.0500
     30 H30         2.6891   -2.8160   50.5737 H       1  ZINC000124554441    0.0500
     31 H31         3.6999   -0.5667   50.3141 H       1  ZINC000124554441    0.0600
     32 H32         3.9970   -1.5707   48.8746 H       1  ZINC000124554441    0.0600
     33 H33         2.1429   -0.4839   47.6911 H       1  ZINC000124554441    0.0600
     34 H34         1.7339    0.4584   49.1447 H       1  ZINC000124554441    0.0600
     35 H35         3.8318    1.6587   49.0485 H       1  ZINC000124554441    0.0700
     36 H36         4.4517    0.5840   47.7722 H       1  ZINC000124554441    0.0700
     37 H37         3.7079    2.2553   46.3874 H       1  ZINC000124554441    0.0700
     38 H38         2.1392    1.4422   46.6022 H       1  ZINC000124554441    0.0700
     39 H39         3.1279    3.6457   48.4562 H       1  ZINC000124554441    0.0700
     40 H40         2.1373    3.9683   47.0130 H       1  ZINC000124554441    0.0700
     41 H41         0.6299    2.1325   48.2563 H       1  ZINC000124554441    0.4000
     42 H42         0.4983    3.6429   52.2864 H       1  ZINC000124554441    0.0800
     43 H43        -0.3685    5.0390   51.6030 H       1  ZINC000124554441    0.0800
     44 H44        -1.6773    2.4920   52.6608 H       1  ZINC000124554441    0.0700
     45 H45        -1.6031    4.0481   53.5231 H       1  ZINC000124554441    0.0900
     46 H46        -3.7811    3.6940   52.3051 H       1  ZINC000124554441    0.1000
     47 H47        -2.8974    5.1395   51.7510 H       1  ZINC000124554441    0.0800
     48 H48        -5.5426    4.6754   50.9850 H       1  ZINC000124554441    0.1500
     49 H49        -7.5278    4.3021   52.3834 H       1  ZINC000124554441    0.1500
     50 H50        -4.9043    0.4408   50.7547 H       1  ZINC000124554441    0.1500
     51 H51        -1.5702    4.8031   49.3827 H       1  ZINC000124554441    0.0800
     52 H52        -1.7456    3.1782   48.6712 H       1  ZINC000124554441    0.1000
@<TRIPOS>BOND
     1     1     2    1
     2     1    28    1
     3     1    29    1
     4     1    30    1
     5     2     3    1
     6     2    31    1
     7     2    32    1
     8     3     4    1
     9     3    33    1
    10     3    34    1
    11     4     5    1
    12     4    35    1
    13     4    36    1
    14     5     6    1
    15     5    37    1
    16     5    38    1
    17     6     7    1
    18     6    39    1
    19     6    40    1
    20     7     8   am
    21     7    41    1
    22     8     9    2
    23     8    10    1
    24    10    11    1
    25    10    27    1
    26    10    12    1
    27    12    13    1
    28    12    42    1
    29    12    43    1
    30    13    14    1
    31    13    44    1
    32    13    45    1
    33    14    15    1
    34    14    46    1
    35    14    47    1
    36    15    16   am
    37    15    27    1
    38    16    17    2
    39    16    18    1
    40    18    26   ar
    41    18    19   ar
    42    19    20   ar
    43    19    48    1
    44    20    21   ar
    45    20    49    1
    46    21    22    1
    47    21    24   ar
    48    22    23    3
    49    24    25    1
    50    24    26   ar
    51    26    50    1
    52    27    51    1
    53    27    52    1
@<TRIPOS>SUBSTRUCTURE
     1 ZINC000124554441        1 TEMP              0 ****  ****    0 ROOT


##########                                Name:    ZINC000848949366
##########                DOCK_Rotatable_Bonds:                   8
##########                         Heavy_Atoms:                  25
##########                    Molecular_Weight:             368.773
##########                DOCK_Rotatable_Bonds:                   8
##########                       Formal_Charge:          0.00999947
##########                     HBond_Acceptors:                   9
##########                        HBond_Donors:                   3
##########                         Heavy_Atoms:                  25
##########                          Grid_Score:          -30.268549
##########                     Grid_vdw_energy:          -29.523773
##########                      Grid_es_energy:           -0.744775
##########           Internal_energy_repulsive:           15.764429

@<TRIPOS>MOLECULE
ZINC000848949366
 42 43 1 0 0
SMALL
USER_CHARGES


@<TRIPOS>ATOM
      1 C1         -9.5175    5.4563   48.6067 C.3     1  ZINC000848949366   -0.1500
      2 C2         -8.7784    5.2504   49.9305 C.3     1  ZINC000848949366    0.0600
      3 O3         -8.5675    3.8536   50.1459 O.3     1  ZINC000848949366   -0.3500
      4 C4         -7.6791    3.5084   51.1014 C.2     1  ZINC000848949366    0.5400
      5 O5         -7.1122    4.3713   51.7453 O.2     1  ZINC000848949366   -0.4800
      6 C6         -7.4071    2.1435   51.3544 C.2     1  ZINC000848949366   -0.2300
      7 C7         -8.0491    1.4740   52.3358 C.2     1  ZINC000848949366    0.2000
      8 C8         -9.0732    2.1925   53.1761 C.3     1  ZINC000848949366    0.1000
      9 O9         -9.6615    1.2620   54.1229 O.3     1  ZINC000848949366   -0.3500
     10 C10       -10.5471    0.3711   53.6352 C.2     1  ZINC000848949366    0.5100
     11 O11       -11.0137    0.5242   52.5236 O.2     1  ZINC000848949366   -0.4800
     12 C12       -10.9495   -0.7890   54.4497 C.ar    1  ZINC000848949366   -0.1600
     13 C13       -10.7468   -0.7809   55.8325 C.ar    1  ZINC000848949366   -0.0300
     14 C14       -11.1250   -1.8684   56.5886 C.ar    1  ZINC000848949366   -0.1300
     15 C15       -11.7065   -2.9727   55.9839 C.ar    1  ZINC000848949366    0.0200
     16 Cl16      -12.1779   -4.3366   56.9487 Cl      1  ZINC000848949366   -0.0500
     17 C17       -11.9131   -2.9933   54.6171 C.ar    1  ZINC000848949366   -0.1500
     18 C18       -11.5436   -1.9051   53.8422 C.ar    1  ZINC000848949366    0.1900
     19 O19       -11.7456   -1.9238   52.5011 O.3     1  ZINC000848949366   -0.4700
     20 N20        -7.7860    0.1562   52.5787 N.am    1  ZINC000848949366   -0.6400
     21 C21        -6.8947   -0.5631   51.8851 C.2     1  ZINC000848949366    0.7100
     22 O22        -6.7289   -1.7319   52.1754 O.2     1  ZINC000848949366   -0.5600
     23 N23        -6.1757   -0.0337   50.8756 N.am    1  ZINC000848949366   -0.7100
     24 C24        -6.3900    1.3814   50.5294 C.3     1  ZINC000848949366    0.2000
     25 H25        -6.6918    1.4294   49.4831 H       1  ZINC000848949366    0.0900
     26 C26        -5.0501    2.1078   50.6632 C.3     1  ZINC000848949366   -0.1700
     27 H27        -9.6784    6.5218   48.4423 H       1  ZINC000848949366    0.0800
     28 H28        -8.9212    5.0486   47.7904 H       1  ZINC000848949366    0.0700
     29 H29       -10.4795    4.9452   48.6445 H       1  ZINC000848949366    0.0700
     30 H30        -7.8163    5.7615   49.8927 H       1  ZINC000848949366    0.0700
     31 H31        -9.3747    5.6581   50.7467 H       1  ZINC000848949366    0.0700
     32 H32        -8.5919    3.0066   53.7181 H       1  ZINC000848949366    0.1100
     33 H33        -9.8534    2.5967   52.5312 H       1  ZINC000848949366    0.1000
     34 H34       -10.2936    0.0766   56.3076 H       1  ZINC000848949366    0.1500
     35 H35       -10.9678   -1.8612   57.6570 H       1  ZINC000848949366    0.1500
     36 H36       -12.3664   -3.8568   54.1531 H       1  ZINC000848949366    0.1500
     37 H37       -12.1241   -2.7506   52.1719 H       1  ZINC000848949366    0.4000
     38 H38        -8.2718   -0.2834   53.2940 H       1  ZINC000848949366    0.4300
     39 H39        -5.5347   -0.5731   50.3865 H       1  ZINC000848949366    0.4400
     40 H40        -4.3244    1.6597   49.9846 H       1  ZINC000848949366    0.0700
     41 H41        -5.1808    3.1604   50.4119 H       1  ZINC000848949366    0.0700
     42 H42        -4.6906    2.0211   51.6886 H       1  ZINC000848949366    0.0700
@<TRIPOS>BOND
     1     1     2    1
     2     1    27    1
     3     1    28    1
     4     1    29    1
     5     2     3    1
     6     2    30    1
     7     2    31    1
     8     3     4    1
     9     4     5    2
    10     4     6    1
    11     6    24    1
    12     6     7    2
    13     7     8    1
    14     7    20    1
    15     8     9    1
    16     8    32    1
    17     8    33    1
    18     9    10    1
    19    10    11    2
    20    10    12    1
    21    12    18   ar
    22    12    13   ar
    23    13    14   ar
    24    13    34    1
    25    14    15   ar
    26    14    35    1
    27    15    16    1
    28    15    17   ar
    29    17    18   ar
    30    17    36    1
    31    18    19    1
    32    19    37    1
    33    20    21   am
    34    20    38    1
    35    21    22    2
    36    21    23   am
    37    23    24    1
    38    23    39    1
    39    24    25    1
    40    24    26    1
    41    26    40    1
    42    26    41    1
    43    26    42    1
@<TRIPOS>SUBSTRUCTURE
     1 ZINC000848949366        1 TEMP              0 ****  ****    0 ROOT


##########                                Name:    ZINC001248546333
##########                DOCK_Rotatable_Bonds:                   6
##########                         Heavy_Atoms:                  27
##########                    Molecular_Weight:             378.397
##########                DOCK_Rotatable_Bonds:                   6
##########                       Formal_Charge:         3.94881e-07
##########                     HBond_Acceptors:                   8
##########                        HBond_Donors:                   1
##########                         Heavy_Atoms:                  27
##########                          Grid_Score:          -30.254190
##########                     Grid_vdw_energy:          -29.470932
##########                      Grid_es_energy:           -0.783258
##########           Internal_energy_repulsive:           13.608936

@<TRIPOS>MOLECULE
ZINC001248546333
 48 50 1 0 0
SMALL
USER_CHARGES


@<TRIPOS>ATOM
      1 C1          3.4600    0.9384   59.2336 C.3     1  ZINC001248546333   -0.1200
      2 C2          1.9987    1.3015   59.2961 C.ar    1  ZINC001248546333   -0.0800
      3 C3          1.2444    0.9402   60.3978 C.ar    1  ZINC001248546333   -0.1200
      4 C4         -0.0978    1.2698   60.4630 C.ar    1  ZINC001248546333   -0.1100
      5 C5         -0.6922    1.9619   59.4281 C.ar    1  ZINC001248546333   -0.1100
      6 C6          0.0633    2.3297   58.3141 C.ar    1  ZINC001248546333   -0.0600
      7 C7         -0.5671    3.0715   57.2017 C.2     1  ZINC001248546333   -0.0600
      8 C8         -0.0189    2.9760   56.0146 C.2     1  ZINC001248546333   -0.1700
      9 C9         -0.5441    3.6895   54.7998 C.3     1  ZINC001248546333    0.1500
     10 N10        -1.8654    4.2559   55.1068 N.am    1  ZINC001248546333   -0.6300
     11 C11        -2.8862    4.1681   54.2312 C.2     1  ZINC001248546333    0.7200
     12 O12        -3.9691    4.6451   54.5102 O.2     1  ZINC001248546333   -0.5800
     13 N13        -2.7066    3.5513   53.0463 N.am    1  ZINC001248546333   -0.7500
     14 C14        -3.8162    3.4559   52.0946 C.3     1  ZINC001248546333    0.2000
     15 C15        -3.2963    2.9788   50.7630 C.2     1  ZINC001248546333    0.0700
     16 C16        -2.0156    3.0551   50.3328 C.2     1  ZINC001248546333   -0.2000
     17 C17        -1.9592    2.5023   49.0491 C.2     1  ZINC001248546333   -0.0200
     18 C18        -0.7250    2.3809   48.1929 C.3     1  ZINC001248546333    0.5600
     19 F19        -0.3599    3.6455   47.7190 F       1  ZINC001248546333   -0.1700
     20 F20         0.3205    1.8485   48.9547 F       1  ZINC001248546333   -0.1700
     21 F21        -0.9901    1.5358   47.1099 F       1  ZINC001248546333   -0.1600
     22 N22        -3.1627    2.1083   48.7206 N.2     1  ZINC001248546333   -0.2200
     23 N23        -4.0234    2.3934   49.7885 N.pl3   1  ZINC001248546333   -0.3400
     24 C24        -5.4607    2.1138   49.8353 C.3     1  ZINC001248546333    0.0900
     25 C25        -2.0288    4.9237   56.4096 C.3     1  ZINC001248546333    0.1300
     26 C26        -1.7945    3.8781   57.5055 C.3     1  ZINC001248546333   -0.1000
     27 C27         1.4174    1.9987   58.2567 C.ar    1  ZINC001248546333   -0.1100
     28 H28         4.0523    1.7377   59.6790 H       1  ZINC001248546333    0.0700
     29 H29         3.6281    0.0122   59.7830 H       1  ZINC001248546333    0.0700
     30 H30         3.7565    0.8029   58.1934 H       1  ZINC001248546333    0.0700
     31 H31         1.7050    0.3983   61.2106 H       1  ZINC001248546333    0.1200
     32 H32        -0.6815    0.9842   61.3256 H       1  ZINC001248546333    0.1200
     33 H33        -1.7401    2.2182   59.4800 H       1  ZINC001248546333    0.1200
     34 H34         0.8559    2.3524   55.9035 H       1  ZINC001248546333    0.1200
     35 H35         0.1407    4.4913   54.5239 H       1  ZINC001248546333    0.0800
     36 H36        -0.6330    2.9844   53.9733 H       1  ZINC001248546333    0.0800
     37 H37        -1.8426    3.1708   52.8237 H       1  ZINC001248546333    0.4000
     38 H38        -4.5568    2.7495   52.4697 H       1  ZINC001248546333    0.1000
     39 H39        -4.2773    4.4362   51.9745 H       1  ZINC001248546333    0.0900
     40 H40        -1.1841    3.4699   50.8831 H       1  ZINC001248546333    0.1700
     41 H41        -5.6241    1.1188   50.2492 H       1  ZINC001248546333    0.0900
     42 H42        -5.9546    2.8546   50.4641 H       1  ZINC001248546333    0.1000
     43 H43        -5.8728    2.1603   48.8273 H       1  ZINC001248546333    0.1000
     44 H44        -1.3023    5.7307   56.5038 H       1  ZINC001248546333    0.0700
     45 H45        -3.0389    5.3244   56.4943 H       1  ZINC001248546333    0.1000
     46 H46        -2.6605    3.2189   57.5658 H       1  ZINC001248546333    0.0800
     47 H47        -1.6617    4.3826   58.4625 H       1  ZINC001248546333    0.0900
     48 H48         2.0076    2.2805   57.3972 H       1  ZINC001248546333    0.1200
@<TRIPOS>BOND
     1     1     2    1
     2     1    28    1
     3     1    29    1
     4     1    30    1
     5     2    27   ar
     6     2     3   ar
     7     3     4   ar
     8     3    31    1
     9     4     5   ar
    10     4    32    1
    11     5     6   ar
    12     5    33    1
    13     6     7    1
    14     6    27   ar
    15     7    26    1
    16     7     8    2
    17     8     9    1
    18     8    34    1
    19     9    10    1
    20     9    35    1
    21     9    36    1
    22    10    11   am
    23    10    25    1
    24    11    12    2
    25    11    13   am
    26    13    14    1
    27    13    37    1
    28    14    15    1
    29    14    38    1
    30    14    39    1
    31    15    23    1
    32    15    16    2
    33    16    17    1
    34    16    40    1
    35    17    18    1
    36    17    22    2
    37    18    19    1
    38    18    20    1
    39    18    21    1
    40    22    23    1
    41    23    24    1
    42    24    41    1
    43    24    42    1
    44    24    43    1
    45    25    26    1
    46    25    44    1
    47    25    45    1
    48    26    46    1
    49    26    47    1
    50    27    48    1
@<TRIPOS>SUBSTRUCTURE
     1 ZINC001248546333        1 TEMP              0 ****  ****    0 ROOT


##########                                Name:    ZINC000437192871
##########                DOCK_Rotatable_Bonds:                   9
##########                         Heavy_Atoms:                  28
##########                    Molecular_Weight:             423.298
##########                DOCK_Rotatable_Bonds:                   9
##########                       Formal_Charge:         -8.9407e-08
##########                     HBond_Acceptors:                   9
##########                        HBond_Donors:                   1
##########                         Heavy_Atoms:                  28
##########                          Grid_Score:          -30.251413
##########                     Grid_vdw_energy:          -29.523766
##########                      Grid_es_energy:           -0.727647
##########           Internal_energy_repulsive:           14.609301

@<TRIPOS>MOLECULE
ZINC000437192871
 48 50 1 0 0
SMALL
USER_CHARGES


@<TRIPOS>ATOM
      1 C1         -8.6799    0.0587   61.7791 C.3     1  ZINC000437192871   -0.1700
      2 C2         -8.2320   -0.6595   60.5045 C.3     1  ZINC000437192871    0.1300
      3 N3         -8.9227   -0.0806   59.3494 N.pl3   1  ZINC000437192871   -0.3600
      4 C4        -10.0795   -0.5222   58.8129 C.2     1  ZINC000437192871    0.0700
      5 C5        -10.3806    0.2794   57.7651 C.2     1  ZINC000437192871   -0.2700
      6 C6        -11.5883    0.1553   56.8724 C.3     1  ZINC000437192871    0.1900
      7 N7        -11.8589   -1.2605   56.6107 N.am    1  ZINC000437192871   -0.6000
      8 C8        -11.2985   -1.9056   55.4207 C.3     1  ZINC000437192871    0.1100
      9 C9        -12.2640   -1.7354   54.2461 C.3     1  ZINC000437192871    0.0600
     10 O10       -11.7677   -2.4519   53.1137 O.3     1  ZINC000437192871   -0.5600
     11 C11       -12.6232   -1.9696   57.4648 C.2     1  ZINC000437192871    0.6000
     12 O12       -13.0882   -1.4341   58.4529 O.2     1  ZINC000437192871   -0.5000
     13 C13       -12.8952   -3.3929   57.2018 C.2     1  ZINC000437192871   -0.2200
     14 C14       -12.0394   -4.4605   57.3030 C.2     1  ZINC000437192871    0.0100
     15 C15       -10.5907   -4.4180   57.7163 C.3     1  ZINC000437192871   -0.0800
     16 O16       -12.7412   -5.5444   56.9642 O.3     1  ZINC000437192871    0.1100
     17 N17       -13.8869   -5.3018   56.6740 N.2     1  ZINC000437192871   -0.3200
     18 C18       -14.1595   -4.0252   56.7699 C.2     1  ZINC000437192871    0.0800
     19 C19       -15.4542   -3.3566   56.4958 C.ar    1  ZINC000437192871   -0.0200
     20 C20       -15.7996   -3.0098   55.1910 C.ar    1  ZINC000437192871   -0.0700
     21 C21       -17.0060   -2.3882   54.9409 C.ar    1  ZINC000437192871   -0.1000
     22 C22       -17.8733   -2.1087   55.9833 C.ar    1  ZINC000437192871   -0.0100
     23 Cl23      -19.3895   -1.3270   55.6608 Cl      1  ZINC000437192871   -0.0500
     24 C24       -17.5361   -2.4507   57.2816 C.ar    1  ZINC000437192871   -0.1100
     25 C25       -16.3337   -3.0778   57.5425 C.ar    1  ZINC000437192871    0.0000
     26 Cl26      -15.9117   -3.5068   59.1708 Cl      1  ZINC000437192871   -0.0300
     27 C27        -9.3733    1.2438   57.6576 C.2     1  ZINC000437192871    0.0600
     28 N28        -8.5019    1.0326   58.6105 N.2     1  ZINC000437192871   -0.2900
     29 H29        -8.1660   -0.3720   62.6385 H       1  ZINC000437192871    0.0800
     30 H30        -8.4363    1.1185   61.7037 H       1  ZINC000437192871    0.0600
     31 H31        -9.7564   -0.0587   61.9031 H       1  ZINC000437192871    0.0700
     32 H32        -7.1554   -0.5421   60.3805 H       1  ZINC000437192871    0.1000
     33 H33        -8.4757   -1.7192   60.5798 H       1  ZINC000437192871    0.0900
     34 H34       -10.6607   -1.3646   59.1578 H       1  ZINC000437192871    0.1600
     35 H35       -12.4511    0.6053   57.3637 H       1  ZINC000437192871    0.0900
     36 H36       -11.3979    0.6691   55.9301 H       1  ZINC000437192871    0.0800
     37 H37       -10.3418   -1.4451   55.1743 H       1  ZINC000437192871    0.1000
     38 H38       -11.1506   -2.9673   55.6185 H       1  ZINC000437192871    0.1000
     39 H39       -13.2439   -2.1253   54.5217 H       1  ZINC000437192871    0.0600
     40 H40       -12.3508   -0.6777   53.9974 H       1  ZINC000437192871    0.0500
     41 H41       -12.3304   -2.3875   52.3300 H       1  ZINC000437192871    0.3800
     42 H42       -10.5111   -4.6268   58.7832 H       1  ZINC000437192871    0.1000
     43 H43       -10.0311   -5.1675   57.1566 H       1  ZINC000437192871    0.0900
     44 H44       -10.1824   -3.4291   57.5082 H       1  ZINC000437192871    0.0900
     45 H45       -15.1241   -3.2268   54.3768 H       1  ZINC000437192871    0.1600
     46 H46       -17.2740   -2.1189   53.9299 H       1  ZINC000437192871    0.1500
     47 H47       -18.2161   -2.2305   58.0912 H       1  ZINC000437192871    0.1500
     48 H48        -9.3257    2.0300   56.9187 H       1  ZINC000437192871    0.1800
@<TRIPOS>BOND
     1     1     2    1
     2     1    29    1
     3     1    30    1
     4     1    31    1
     5     2     3    1
     6     2    32    1
     7     2    33    1
     8     3    28    1
     9     3     4    1
    10     4     5    2
    11     4    34    1
    12     5     6    1
    13     5    27    1
    14     6     7    1
    15     6    35    1
    16     6    36    1
    17     7     8    1
    18     7    11   am
    19     8     9    1
    20     8    37    1
    21     8    38    1
    22     9    10    1
    23     9    39    1
    24     9    40    1
    25    10    41    1
    26    11    12    2
    27    11    13    1
    28    13    18    1
    29    13    14    2
    30    14    15    1
    31    14    16    1
    32    15    42    1
    33    15    43    1
    34    15    44    1
    35    16    17    1
    36    17    18    2
    37    18    19    1
    38    19    25   ar
    39    19    20   ar
    40    20    21   ar
    41    20    45    1
    42    21    22   ar
    43    21    46    1
    44    22    23    1
    45    22    24   ar
    46    24    25   ar
    47    24    47    1
    48    25    26    1
    49    27    28    2
    50    27    48    1
@<TRIPOS>SUBSTRUCTURE
     1 ZINC000437192871        1 TEMP              0 ****  ****    0 ROOT


##########                                Name:    ZINC000753658424
##########                DOCK_Rotatable_Bonds:                   8
##########                         Heavy_Atoms:                  24
##########                    Molecular_Weight:             332.399
##########                DOCK_Rotatable_Bonds:                   8
##########                       Formal_Charge:        -9.16421e-07
##########                     HBond_Acceptors:                   6
##########                        HBond_Donors:                   3
##########                         Heavy_Atoms:                  24
##########                          Grid_Score:          -30.249985
##########                     Grid_vdw_energy:          -27.792334
##########                      Grid_es_energy:           -2.457651
##########           Internal_energy_repulsive:           14.749127

@<TRIPOS>MOLECULE
ZINC000753658424
 48 49 1 0 0
SMALL
USER_CHARGES


@<TRIPOS>ATOM
      1 C1        -13.0826   -0.5124   47.8931 C.3     1  ZINC000753658424   -0.2000
      2 C2        -14.3857    0.1009   47.4497 C.2     1  ZINC000753658424    0.4400
      3 O3        -15.3256    0.1480   48.2154 O.2     1  ZINC000753658424   -0.4500
      4 C4        -14.5178    0.6409   46.0930 C.2     1  ZINC000753658424   -0.2500
      5 C5        -13.9643    1.8191   45.6167 C.2     1  ZINC000753658424    0.1000
      6 C6        -13.1140    2.7780   46.4095 C.3     1  ZINC000753658424   -0.1000
      7 N7        -14.3142    1.9599   44.3298 N.pl3   1  ZINC000753658424   -0.5300
      8 C8        -15.0929    0.8881   43.9494 C.2     1  ZINC000753658424   -0.0600
      9 C9        -15.6718    0.6769   42.6164 C.2     1  ZINC000753658424    0.5900
     10 O10       -16.8488    0.9141   42.4198 O.2     1  ZINC000753658424   -0.5200
     11 N11       -14.8992    0.2203   41.6109 N.am    1  ZINC000753658424   -0.7300
     12 C12       -15.4771    0.0081   40.2815 C.3     1  ZINC000753658424    0.0900
     13 C13       -14.3541   -0.2209   39.2679 C.3     1  ZINC000753658424    0.1900
     14 H14       -14.7841   -0.3828   38.2795 H       1  ZINC000753658424    0.1300
     15 O15       -13.5940   -1.3689   39.6506 O.3     1  ZINC000753658424   -0.5500
     16 C16       -13.4550    0.9879   39.2327 C.2     1  ZINC000753658424   -0.0600
     17 C17       -12.1103    0.9691   39.2627 C.2     1  ZINC000753658424   -0.1800
     18 C18       -11.6806    2.3152   39.2110 C.2     1  ZINC000753658424   -0.2100
     19 C19       -12.7885    3.0759   39.1524 C.2     1  ZINC000753658424    0.0000
     20 C20       -12.8215    4.5809   39.0827 C.3     1  ZINC000753658424   -0.0800
     21 O21       -13.8601    2.2663   39.1599 O.3     1  ZINC000753658424   -0.1700
     22 C22       -15.2296    0.0548   45.0187 C.2     1  ZINC000753658424   -0.0100
     23 C23       -15.9999   -1.2399   45.0539 C.3     1  ZINC000753658424   -0.0500
     24 C24       -15.1803   -2.3011   45.7909 C.3     1  ZINC000753658424   -0.1500
     25 C25       -17.3276   -1.0238   45.7827 C.3     1  ZINC000753658424   -0.1500
     26 H26       -13.1486   -0.7837   48.9468 H       1  ZINC000753658424    0.0800
     27 H27       -12.8806   -1.4045   47.3004 H       1  ZINC000753658424    0.1000
     28 H28       -12.2761    0.2072   47.7530 H       1  ZINC000753658424    0.0900
     29 H29       -12.0607    2.5506   46.2456 H       1  ZINC000753658424    0.0900
     30 H30       -13.3200    3.7986   46.0867 H       1  ZINC000753658424    0.0800
     31 H31       -13.3464    2.6784   47.4698 H       1  ZINC000753658424    0.0900
     32 H32       -14.0593    2.6998   43.7566 H       1  ZINC000753658424    0.4200
     33 H33       -13.9605    0.0323   41.7674 H       1  ZINC000753658424    0.4000
     34 H34       -16.1296   -0.8648   40.3042 H       1  ZINC000753658424    0.0900
     35 H35       -16.0546    0.8859   39.9919 H       1  ZINC000753658424    0.0800
     36 H36       -13.2077   -1.3080   40.5350 H       1  ZINC000753658424    0.3900
     37 H37       -11.4798    0.0939   39.3166 H       1  ZINC000753658424    0.1500
     38 H38       -10.6590    2.6653   39.2175 H       1  ZINC000753658424    0.1500
     39 H39       -12.8075    4.8967   38.0395 H       1  ZINC000753658424    0.0800
     40 H40       -13.7299    4.9470   39.5609 H       1  ZINC000753658424    0.0800
     41 H41       -11.9508    4.9876   39.5971 H       1  ZINC000753658424    0.0900
     42 H42       -16.1949   -1.5744   44.0350 H       1  ZINC000753658424    0.1100
     43 H43       -15.0874   -2.0238   46.8409 H       1  ZINC000753658424    0.0500
     44 H44       -15.6812   -3.2660   45.7128 H       1  ZINC000753658424    0.0600
     45 H45       -14.1885   -2.3693   45.3439 H       1  ZINC000753658424    0.0600
     46 H46       -17.9445   -0.3272   45.2150 H       1  ZINC000753658424    0.0500
     47 H47       -17.8489   -1.9762   45.8781 H       1  ZINC000753658424    0.0600
     48 H48       -17.1353   -0.6139   46.7742 H       1  ZINC000753658424    0.0600
@<TRIPOS>BOND
     1     1     2    1
     2     1    26    1
     3     1    27    1
     4     1    28    1
     5     2     3    2
     6     2     4    1
     7     4    22    1
     8     4     5    2
     9     5     6    1
    10     5     7    1
    11     6    29    1
    12     6    30    1
    13     6    31    1
    14     7     8    1
    15     7    32    1
    16     8     9    1
    17     8    22    2
    18     9    10    2
    19     9    11   am
    20    11    12    1
    21    11    33    1
    22    12    13    1
    23    12    34    1
    24    12    35    1
    25    13    14    1
    26    13    15    1
    27    13    16    1
    28    15    36    1
    29    16    21    1
    30    16    17    2
    31    17    18    1
    32    17    37    1
    33    18    19    2
    34    18    38    1
    35    19    20    1
    36    19    21    1
    37    20    39    1
    38    20    40    1
    39    20    41    1
    40    22    23    1
    41    23    24    1
    42    23    25    1
    43    23    42    1
    44    24    43    1
    45    24    44    1
    46    24    45    1
    47    25    46    1
    48    25    47    1
    49    25    48    1
@<TRIPOS>SUBSTRUCTURE
     1 ZINC000753658424        1 TEMP              0 ****  ****    0 ROOT


##########                                Name:    ZINC000467104849
##########                DOCK_Rotatable_Bonds:                   6
##########                         Heavy_Atoms:                  29
##########                    Molecular_Weight:             421.896
##########                DOCK_Rotatable_Bonds:                   6
##########                       Formal_Charge:           0.0200002
##########                     HBond_Acceptors:                   7
##########                        HBond_Donors:                   0
##########                         Heavy_Atoms:                  29
##########                          Grid_Score:          -30.242828
##########                     Grid_vdw_energy:          -30.650496
##########                      Grid_es_energy:            0.407667
##########           Internal_energy_repulsive:          102.868065

@<TRIPOS>MOLECULE
ZINC000467104849
 54 56 1 0 0
SMALL
USER_CHARGES


@<TRIPOS>ATOM
      1 C1          4.8249   -0.8004   50.8040 C.3     1  ZINC000467104849    0.0200
      2 O2          3.6798   -0.9632   49.9647 O.3     1  ZINC000467104849   -0.3000
      3 C3          3.0574    0.1701   49.5429 C.ar    1  ZINC000467104849    0.1000
      4 C4          3.5044    1.4087   49.9729 C.ar    1  ZINC000467104849   -0.1700
      5 C5          2.8707    2.5600   49.5428 C.ar    1  ZINC000467104849   -0.1200
      6 C6          1.7907    2.4785   48.6842 C.ar    1  ZINC000467104849   -0.0800
      7 C7          1.1034    3.7363   48.2189 C.3     1  ZINC000467104849   -0.0400
      8 C8          1.4995    4.9005   49.1292 C.3     1  ZINC000467104849   -0.1300
      9 C9          1.5257    4.0464   46.7814 C.3     1  ZINC000467104849   -0.1600
     10 C10        -0.3900    3.5420   48.2729 C.2     1  ZINC000467104849    0.5300
     11 O11        -1.0746    3.8342   47.3154 O.2     1  ZINC000467104849   -0.5300
     12 N12        -0.9649    3.0435   49.3853 N.am    1  ZINC000467104849   -0.6100
     13 C13        -0.1550    2.6818   50.5594 C.3     1  ZINC000467104849    0.0600
     14 C14        -0.7749    3.3418   51.7964 C.3     1  ZINC000467104849    0.0500
     15 O15        -2.1649    3.0136   51.8583 O.3     1  ZINC000467104849   -0.3700
     16 C16        -2.9305    3.4977   50.7523 C.3     1  ZINC000467104849    0.1300
     17 H17        -2.8223    4.5799   50.6805 H       1  ZINC000467104849    0.0800
     18 C18        -4.3826    3.1492   50.9543 C.ar    1  ZINC000467104849   -0.0900
     19 C19        -5.3221    4.1544   51.0855 C.ar    1  ZINC000467104849   -0.0500
     20 C20        -6.6547    3.8367   51.2709 C.ar    1  ZINC000467104849   -0.1400
     21 C21        -7.0487    2.5110   51.3247 C.ar    1  ZINC000467104849    0.1200
     22 F22        -8.3508    2.1995   51.5054 F       1  ZINC000467104849   -0.1200
     23 C23        -6.1063    1.5035   51.1926 C.ar    1  ZINC000467104849   -0.0800
     24 Cl24       -6.5980   -0.1601   51.2597 Cl      1  ZINC000467104849   -0.0400
     25 C25        -4.7747    1.8243   51.0025 C.ar    1  ZINC000467104849   -0.0700
     26 C26        -2.4216    2.8508   49.4640 C.3     1  ZINC000467104849    0.0900
     27 C27         1.3397    1.2451   48.2506 C.ar    1  ZINC000467104849   -0.1600
     28 C28         1.9734    0.0881   48.6736 C.ar    1  ZINC000467104849    0.1100
     29 O29         1.5311   -1.1255   48.2482 O.3     1  ZINC000467104849   -0.3000
     30 C30         2.1625   -2.2788   48.8079 C.3     1  ZINC000467104849    0.0200
     31 H31         5.2243   -1.7797   51.0675 H       1  ZINC000467104849    0.1000
     32 H32         5.5860   -0.2283   50.2734 H       1  ZINC000467104849    0.0600
     33 H33         4.5377   -0.2689   51.7113 H       1  ZINC000467104849    0.0600
     34 H34         4.3476    1.4751   50.6445 H       1  ZINC000467104849    0.1400
     35 H35         3.2201    3.5251   49.8788 H       1  ZINC000467104849    0.1300
     36 H36         2.5662    5.0982   49.0229 H       1  ZINC000467104849    0.0700
     37 H37         0.9353    5.7898   48.8480 H       1  ZINC000467104849    0.0700
     38 H38         1.2792    4.6429   50.1652 H       1  ZINC000467104849    0.0700
     39 H39         1.1655    3.2593   46.1190 H       1  ZINC000467104849    0.0700
     40 H40         1.0997    5.0019   46.4756 H       1  ZINC000467104849    0.0700
     41 H41         2.6130    4.0989   46.7255 H       1  ZINC000467104849    0.0700
     42 H42        -0.1521    1.5989   50.6839 H       1  ZINC000467104849    0.0800
     43 H43         0.8660    3.0392   50.4254 H       1  ZINC000467104849    0.1100
     44 H44        -0.2742    2.9769   52.6931 H       1  ZINC000467104849    0.1100
     45 H45        -0.6589    4.4236   51.7284 H       1  ZINC000467104849    0.0600
     46 H46        -5.0149    5.1890   51.0436 H       1  ZINC000467104849    0.1500
     47 H47        -7.3881    4.6228   51.3741 H       1  ZINC000467104849    0.1500
     48 H48        -4.0398    1.0397   50.8991 H       1  ZINC000467104849    0.1500
     49 H49        -2.9021    3.3177   48.6041 H       1  ZINC000467104849    0.1100
     50 H50        -2.6451    1.7840   49.4756 H       1  ZINC000467104849    0.0800
     51 H51         0.4957    1.1842   47.5796 H       1  ZINC000467104849    0.1400
     52 H52         3.2276   -2.2578   48.5770 H       1  ZINC000467104849    0.0600
     53 H53         2.0251   -2.2795   49.8892 H       1  ZINC000467104849    0.0600
     54 H54         1.7165   -3.1787   48.3844 H       1  ZINC000467104849    0.1000
@<TRIPOS>BOND
     1     1     2    1
     2     1    31    1
     3     1    32    1
     4     1    33    1
     5     2     3    1
     6     3    28   ar
     7     3     4   ar
     8     4     5   ar
     9     4    34    1
    10     5     6   ar
    11     5    35    1
    12     6     7    1
    13     6    27   ar
    14     7     8    1
    15     7     9    1
    16     7    10    1
    17     8    36    1
    18     8    37    1
    19     8    38    1
    20     9    39    1
    21     9    40    1
    22     9    41    1
    23    10    11    2
    24    10    12   am
    25    12    26    1
    26    12    13    1
    27    13    14    1
    28    13    42    1
    29    13    43    1
    30    14    15    1
    31    14    44    1
    32    14    45    1
    33    15    16    1
    34    16    17    1
    35    16    18    1
    36    16    26    1
    37    18    25   ar
    38    18    19   ar
    39    19    20   ar
    40    19    46    1
    41    20    21   ar
    42    20    47    1
    43    21    22    1
    44    21    23   ar
    45    23    24    1
    46    23    25   ar
    47    25    48    1
    48    26    49    1
    49    26    50    1
    50    27    28   ar
    51    27    51    1
    52    28    29    1
    53    29    30    1
    54    30    52    1
    55    30    53    1
    56    30    54    1
@<TRIPOS>SUBSTRUCTURE
     1 ZINC000467104849        1 TEMP              0 ****  ****    0 ROOT


##########                                Name:    ZINC000474368324
##########                DOCK_Rotatable_Bonds:                   9
##########                         Heavy_Atoms:                  27
##########                    Molecular_Weight:             417.332
##########                DOCK_Rotatable_Bonds:                   9
##########                       Formal_Charge:        -1.63913e-07
##########                     HBond_Acceptors:                   8
##########                        HBond_Donors:                   1
##########                         Heavy_Atoms:                  27
##########                          Grid_Score:          -30.231934
##########                     Grid_vdw_energy:          -27.511459
##########                      Grid_es_energy:           -2.720473
##########           Internal_energy_repulsive:           34.025139

@<TRIPOS>MOLECULE
ZINC000474368324
 53 54 1 0 0
SMALL
USER_CHARGES


@<TRIPOS>ATOM
      1 C1          0.1724    0.5758   61.4879 C.3     1  ZINC000474368324   -0.1500
      2 C2         -0.2320    1.5884   60.4146 C.3     1  ZINC000474368324    0.0600
      3 O3          0.9312    2.3597   60.0140 O.3     1  ZINC000474368324   -0.3300
      4 C4          0.7185    3.4034   59.1972 C.2     1  ZINC000474368324    0.4700
      5 O5          0.6766    4.5240   59.6472 O.2     1  ZINC000474368324   -0.5100
      6 C6          0.5321    3.1776   57.7189 C.3     1  ZINC000474368324   -0.0400
      7 C7          1.3460    1.9575   57.2830 C.3     1  ZINC000474368324    0.0600
      8 O8          2.7177    2.1495   57.6347 O.3     1  ZINC000474368324   -0.3700
      9 C9          3.2834    1.0693   58.3797 C.3     1  ZINC000474368324    0.0300
     10 C10        -0.9496    2.9338   57.4232 C.3     1  ZINC000474368324   -0.1200
     11 C11        -1.1305    2.6704   55.9250 C.3     1  ZINC000474368324    0.1100
     12 N12        -0.5412    3.7871   55.1739 N.am    1  ZINC000474368324   -0.6300
     13 C13        -1.2651    4.4530   54.2527 C.2     1  ZINC000474368324    0.7100
     14 O14        -0.7659    5.3755   53.6377 O.2     1  ZINC000474368324   -0.5800
     15 N15        -2.5426    4.0965   54.0129 N.am    1  ZINC000474368324   -0.7400
     16 C16        -3.3295    4.8202   53.0115 C.3     1  ZINC000474368324    0.2000
     17 H17        -2.6787    5.4963   52.4570 H       1  ZINC000474368324    0.1100
     18 C18        -4.4261    5.6267   53.7101 C.3     1  ZINC000474368324   -0.1600
     19 C19        -3.9590    3.8358   52.0597 C.ar    1  ZINC000474368324   -0.0700
     20 C20        -5.1918    3.2838   52.3520 C.ar    1  ZINC000474368324   -0.1000
     21 C21        -5.7703    2.3809   51.4791 C.ar    1  ZINC000474368324   -0.0900
     22 C22        -5.1164    2.0294   50.3135 C.ar    1  ZINC000474368324   -0.1000
     23 C23        -3.8822    2.5810   50.0193 C.ar    1  ZINC000474368324   -0.0300
     24 Cl24       -3.0604    2.1398   48.5552 Cl      1  ZINC000474368324   -0.0400
     25 C25        -3.3054    3.4891   50.8908 C.ar    1  ZINC000474368324   -0.0300
     26 Cl26       -1.7571    4.1827   50.5229 Cl      1  ZINC000474368324   -0.0400
     27 C27         0.8524    4.1645   55.4467 C.3     1  ZINC000474368324    0.1300
     28 C28         1.0112    4.4112   56.9503 C.3     1  ZINC000474368324   -0.1200
     29 H29        -0.7008   -0.0031   61.7886 H       1  ZINC000474368324    0.0800
     30 H30         0.9324   -0.0947   61.0869 H       1  ZINC000474368324    0.0700
     31 H31         0.5737    1.1040   62.3529 H       1  ZINC000474368324    0.0700
     32 H32        -0.6333    1.0603   59.5497 H       1  ZINC000474368324    0.0700
     33 H33        -0.9920    2.2589   60.8157 H       1  ZINC000474368324    0.0700
     34 H34         0.9637    1.0680   57.7836 H       1  ZINC000474368324    0.0700
     35 H35         1.2620    1.8315   56.2035 H       1  ZINC000474368324    0.0600
     36 H36         2.7284    0.9387   59.3087 H       1  ZINC000474368324    0.0400
     37 H37         3.2274    0.1535   57.7912 H       1  ZINC000474368324    0.0400
     38 H38         4.3259    1.2915   58.6074 H       1  ZINC000474368324    0.0900
     39 H39        -1.2960    2.0689   57.9891 H       1  ZINC000474368324    0.1000
     40 H40        -1.5272    3.8123   57.7105 H       1  ZINC000474368324    0.0800
     41 H41        -0.6278    1.7420   55.6538 H       1  ZINC000474368324    0.0800
     42 H42        -2.1929    2.5943   55.6931 H       1  ZINC000474368324    0.0800
     43 H43        -2.9408    3.3605   54.5035 H       1  ZINC000474368324    0.3900
     44 H44        -5.0770    4.9507   54.2645 H       1  ZINC000474368324    0.0600
     45 H45        -3.9709    6.3388   54.3985 H       1  ZINC000474368324    0.0700
     46 H46        -5.0117    6.1653   52.9650 H       1  ZINC000474368324    0.0700
     47 H47        -5.7035    3.5576   53.2628 H       1  ZINC000474368324    0.1300
     48 H48        -6.7337    1.9498   51.7086 H       1  ZINC000474368324    0.1400
     49 H49        -5.5686    1.3238   49.6322 H       1  ZINC000474368324    0.1500
     50 H50         1.5168    3.3580   55.1365 H       1  ZINC000474368324    0.0700
     51 H51         1.0984    5.0744   54.8992 H       1  ZINC000474368324    0.1100
     52 H52         0.4150    5.2758   57.2420 H       1  ZINC000474368324    0.0900
     53 H53         2.0603    4.5980   57.1796 H       1  ZINC000474368324    0.0900
@<TRIPOS>BOND
     1     1     2    1
     2     1    29    1
     3     1    30    1
     4     1    31    1
     5     2     3    1
     6     2    32    1
     7     2    33    1
     8     3     4    1
     9     4     5    2
    10     4     6    1
    11     6    28    1
    12     6     7    1
    13     6    10    1
    14     7     8    1
    15     7    34    1
    16     7    35    1
    17     8     9    1
    18     9    36    1
    19     9    37    1
    20     9    38    1
    21    10    11    1
    22    10    39    1
    23    10    40    1
    24    11    12    1
    25    11    41    1
    26    11    42    1
    27    12    13   am
    28    12    27    1
    29    13    14    2
    30    13    15   am
    31    15    16    1
    32    15    43    1
    33    16    17    1
    34    16    18    1
    35    16    19    1
    36    18    44    1
    37    18    45    1
    38    18    46    1
    39    19    25   ar
    40    19    20   ar
    41    20    21   ar
    42    20    47    1
    43    21    22   ar
    44    21    48    1
    45    22    23   ar
    46    22    49    1
    47    23    24    1
    48    23    25   ar
    49    25    26    1
    50    27    28    1
    51    27    50    1
    52    27    51    1
    53    28    52    1
    54    28    53    1
@<TRIPOS>SUBSTRUCTURE
     1 ZINC000474368324        1 TEMP              0 ****  ****    0 ROOT


##########                                Name:    ZINC000266467123
##########                DOCK_Rotatable_Bonds:                   9
##########                         Heavy_Atoms:                  25
##########                    Molecular_Weight:             337.421
##########                DOCK_Rotatable_Bonds:                   9
##########                       Formal_Charge:                0.02
##########                     HBond_Acceptors:                   5
##########                        HBond_Donors:                   3
##########                         Heavy_Atoms:                  25
##########                          Grid_Score:          -30.225485
##########                     Grid_vdw_energy:          -29.125975
##########                      Grid_es_energy:           -1.099511
##########           Internal_energy_repulsive:            9.298024

@<TRIPOS>MOLECULE
ZINC000266467123
 48 50 1 0 0
SMALL
USER_CHARGES


@<TRIPOS>ATOM
      1 C1         -0.1040    3.1177   46.8628 C.3     1  <0>        -0.1600
      2 C2         -0.2903    2.0295   47.9221 C.3     1  <0>         0.1500
      3 H3         -1.1386    1.4008   47.6517 H       1  <0>         0.1200
      4 N4         -0.5401    2.6532   49.2240 N.am    1  <0>        -0.7300
      5 C5         -1.8024    2.7825   49.6783 C.2     1  <0>         0.7100
      6 O6         -2.7338    2.3802   49.0083 O.2     1  <0>        -0.5900
      7 N7         -2.0322    3.3576   50.8753 N.am    1  <0>        -0.7100
      8 C8         -3.4042    3.4966   51.3698 C.3     1  <0>         0.1100
      9 H9         -4.0681    2.6589   51.1561 H       1  <0>         0.1400
     10 C10        -4.0153    4.8992   51.3733 C.3     1  <0>        -0.1900
     11 C11        -3.6067    4.2387   52.6924 C.3     1  <0>        -0.1500
     12 H12        -4.4039    3.8896   53.3486 H       1  <0>         0.1200
     13 C13        -2.3612    4.7798   53.3973 C.3     1  <0>        -0.0500
     14 C14        -2.0945    3.9686   54.6391 C.ar    1  <0>        -0.0800
     15 C15        -3.0530    3.8894   55.6320 C.ar    1  <0>        -0.1100
     16 C16        -2.8083    3.1453   56.7710 C.ar    1  <0>        -0.1200
     17 C17        -1.6054    2.4802   56.9169 C.ar    1  <0>        -0.1200
     18 C18        -0.6472    2.5586   55.9235 C.ar    1  <0>        -0.1200
     19 C19        -0.8936    3.2992   54.7825 C.ar    1  <0>        -0.1200
     20 C20         0.9559    1.1858   48.0001 C.2     1  <0>         0.5100
     21 O21         1.2793    0.4934   47.0584 O.2     1  <0>        -0.5100
     22 N22         1.7109    1.2007   49.1164 N.am    1  <0>        -0.6700
     23 C23         2.8680    0.4172   49.1888 C.ar    1  <0>         0.1400
     24 C24         2.8509   -0.7869   49.8806 C.ar    1  <0>        -0.1400
     25 C25         3.9948   -1.5579   49.9503 C.ar    1  <0>        -0.1000
     26 C26         5.1562   -1.1319   49.3325 C.ar    1  <0>        -0.1300
     27 C27         5.1766    0.0668   48.6432 C.ar    1  <0>        -0.1000
     28 C28         4.0343    0.8392   48.5642 C.ar    1  <0>        -0.1200
     29 H29         0.0818    2.6538   45.8941 H       1  <0>         0.0700
     30 H30        -1.0053    3.7281   46.8064 H       1  <0>         0.0800
     31 H31         0.7443    3.7465   47.1332 H       1  <0>         0.0700
     32 H32         0.2030    2.9730   49.7592 H       1  <0>         0.4100
     33 H33        -1.2893    3.6796   51.4093 H       1  <0>         0.4000
     34 H34        -3.3966    5.7187   51.0076 H       1  <0>         0.1000
     35 H35        -5.0813    4.9843   51.1622 H       1  <0>         0.1000
     36 H36        -1.5049    4.7097   52.7266 H       1  <0>         0.0800
     37 H37        -2.5232    5.8221   53.6720 H       1  <0>         0.0700
     38 H38        -3.9928    4.4092   55.5180 H       1  <0>         0.1200
     39 H39        -3.5569    3.0841   57.5471 H       1  <0>         0.1200
     40 H40        -1.4139    1.8994   57.8071 H       1  <0>         0.1200
     41 H41         0.2927    2.0392   56.0377 H       1  <0>         0.1200
     42 H42        -0.1451    3.3605   54.0065 H       1  <0>         0.1200
     43 H43         1.4522    1.7544   49.8695 H       1  <0>         0.4100
     44 H44         1.9443   -1.1198   50.3639 H       1  <0>         0.1300
     45 H45         3.9820   -2.4943   50.4882 H       1  <0>         0.1300
     46 H46         6.0494   -1.7363   49.3886 H       1  <0>         0.1200
     47 H47         6.0854    0.3972   48.1624 H       1  <0>         0.1300
     48 H48         4.0509    1.7753   48.0258 H       1  <0>         0.1400
@<TRIPOS>BOND
     1     1     2    1
     2     1    29    1
     3     1    30    1
     4     1    31    1
     5     2     3    1
     6     2     4    1
     7     2    20    1
     8     4     5   am
     9     4    32    1
    10     5     6    2
    11     5     7   am
    12     7     8    1
    13     7    33    1
    14     8     9    1
    15     8    11    1
    16     8    10    1
    17    10    11    1
    18    10    34    1
    19    10    35    1
    20    11    12    1
    21    11    13    1
    22    13    14    1
    23    13    36    1
    24    13    37    1
    25    14    19   ar
    26    14    15   ar
    27    15    16   ar
    28    15    38    1
    29    16    17   ar
    30    16    39    1
    31    17    18   ar
    32    17    40    1
    33    18    19   ar
    34    18    41    1
    35    19    42    1
    36    20    21    2
    37    20    22   am
    38    22    23    1
    39    22    43    1
    40    23    28   ar
    41    23    24   ar
    42    24    25   ar
    43    24    44    1
    44    25    26   ar
    45    25    45    1
    46    26    27   ar
    47    26    46    1
    48    27    28   ar
    49    27    47    1
    50    28    48    1
@<TRIPOS>SUBSTRUCTURE
     1 <0>         1 TEMP              0 ****  ****    0 ROOT


##########                                Name:    ZINC000004313955
##########                DOCK_Rotatable_Bonds:                   6
##########                         Heavy_Atoms:                  26
##########                    Molecular_Weight:             414.358
##########                DOCK_Rotatable_Bonds:                   6
##########                       Formal_Charge:           0.0299997
##########                     HBond_Acceptors:                   9
##########                        HBond_Donors:                   2
##########                         Heavy_Atoms:                  26
##########                          Grid_Score:          -30.170334
##########                     Grid_vdw_energy:          -28.663681
##########                      Grid_es_energy:           -1.506652
##########           Internal_energy_repulsive:           13.864089

@<TRIPOS>MOLECULE
ZINC000004313955
 47 49 1 0 0
SMALL
USER_CHARGES


@<TRIPOS>ATOM
      1 C1        -10.6866    3.8990   50.7217 C.3     1  ZINC000004313955   -0.1500
      2 C2         -9.3414    3.5257   51.3481 C.3     1  ZINC000004313955   -0.1100
      3 H3         -9.3917    2.5096   51.7392 H       1  ZINC000004313955    0.0800
      4 C4         -9.0216    4.4964   52.4873 C.3     1  ZINC000004313955   -0.1100
      5 C5         -7.6921    4.1041   53.1359 C.3     1  ZINC000004313955   -0.1100
      6 H6         -7.4765    4.7816   53.9621 H       1  ZINC000004313955    0.0900
      7 C7         -7.7840    2.6702   53.6619 C.3     1  ZINC000004313955   -0.1500
      8 C8         -6.5732    4.1965   52.0936 C.3     1  ZINC000004313955    0.1200
      9 N9         -6.9419    3.3780   50.9304 N.am    1  ZINC000004313955   -0.6000
     10 C10        -6.1042    2.4308   50.4640 C.2     1  ZINC000004313955    0.5400
     11 O11        -6.4208    1.7608   49.5039 O.2     1  ZINC000004313955   -0.5300
     12 C12        -4.7743    2.2041   51.1357 C.3     1  ZINC000004313955   -0.1400
     13 S13        -3.6703    3.5914   50.7714 S.3     1  ZINC000004313955    0.0800
     14 C14        -2.7137    2.8875   49.4698 C.2     1  ZINC000004313955    0.1100
     15 N15        -3.1021    1.9477   48.6373 N.2     1  ZINC000004313955   -0.2800
     16 N16        -2.1560    1.6694   47.8133 N.2     1  ZINC000004313955   -0.2400
     17 C17        -1.1056    2.4141   48.0689 C.2     1  ZINC000004313955    0.2500
     18 C18         0.1831    2.3935   47.3450 C.ar    1  ZINC000004313955   -0.0100
     19 C19         0.2644    2.8944   46.0449 C.ar    1  ZINC000004313955   -0.0700
     20 C20         1.4697    2.8725   45.3742 C.ar    1  ZINC000004313955   -0.1100
     21 C21         2.5978    2.3546   45.9876 C.ar    1  ZINC000004313955   -0.0100
     22 Cl22        4.1105    2.3303   45.1361 Cl      1  ZINC000004313955   -0.0500
     23 C23         2.5248    1.8563   47.2775 C.ar    1  ZINC000004313955   -0.1100
     24 C24         1.3258    1.8779   47.9614 C.ar    1  ZINC000004313955    0.0100
     25 Cl25        1.2352    1.2529   49.5784 Cl      1  ZINC000004313955   -0.0100
     26 N26        -1.4323    3.2210   49.1343 N.pl3   1  ZINC000004313955   -0.3000
     27 N27        -0.6380    4.1553   49.7361 N.3     1  ZINC000004313955   -0.5800
     28 C28        -8.2414    3.6107   50.2854 C.3     1  ZINC000004313955    0.1100
     29 H29       -10.9133    3.2082   49.9097 H       1  ZINC000004313955    0.0600
     30 H30       -11.4687    3.8395   51.4785 H       1  ZINC000004313955    0.0600
     31 H31       -10.6358    4.9152   50.3308 H       1  ZINC000004313955    0.0600
     32 H32        -8.9477    5.5093   52.0915 H       1  ZINC000004313955    0.0700
     33 H33        -9.8156    4.4553   53.2330 H       1  ZINC000004313955    0.0700
     34 H34        -7.9985    1.9930   52.8352 H       1  ZINC000004313955    0.0600
     35 H35        -6.8369    2.3913   54.1237 H       1  ZINC000004313955    0.0600
     36 H36        -8.5820    2.6050   54.4015 H       1  ZINC000004313955    0.0600
     37 H37        -6.4462    5.2340   51.7850 H       1  ZINC000004313955    0.0700
     38 H38        -5.6429    3.8240   52.5224 H       1  ZINC000004313955    0.1000
     39 H39        -4.9198    2.1288   52.2133 H       1  ZINC000004313955    0.1300
     40 H40        -4.3320    1.2802   50.7632 H       1  ZINC000004313955    0.1300
     41 H41        -0.6147    3.2981   45.5647 H       1  ZINC000004313955    0.1600
     42 H42         1.5334    3.2599   44.3680 H       1  ZINC000004313955    0.1500
     43 H43         3.4080    1.4537   47.7507 H       1  ZINC000004313955    0.1500
     44 H44        -0.9131    4.2994   50.6961 H       1  ZINC000004313955    0.3700
     45 H45         0.3353    3.8966   49.6739 H       1  ZINC000004313955    0.3800
     46 H46        -8.4110    2.8523   49.5212 H       1  ZINC000004313955    0.0900
     47 H47        -8.2508    4.6006   49.8291 H       1  ZINC000004313955    0.0800
@<TRIPOS>BOND
     1     1     2    1
     2     1    29    1
     3     1    30    1
     4     1    31    1
     5     2     3    1
     6     2    28    1
     7     2     4    1
     8     4     5    1
     9     4    32    1
    10     4    33    1
    11     5     6    1
    12     5     7    1
    13     5     8    1
    14     7    34    1
    15     7    35    1
    16     7    36    1
    17     8     9    1
    18     8    37    1
    19     8    38    1
    20     9    10   am
    21     9    28    1
    22    10    11    2
    23    10    12    1
    24    12    13    1
    25    12    39    1
    26    12    40    1
    27    13    14    1
    28    14    26    1
    29    14    15    2
    30    15    16    1
    31    16    17    2
    32    17    18    1
    33    17    26    1
    34    18    24   ar
    35    18    19   ar
    36    19    20   ar
    37    19    41    1
    38    20    21   ar
    39    20    42    1
    40    21    22    1
    41    21    23   ar
    42    23    24   ar
    43    23    43    1
    44    24    25    1
    45    26    27    1
    46    27    44    1
    47    27    45    1
    48    28    46    1
    49    28    47    1
@<TRIPOS>SUBSTRUCTURE
     1 ZINC000004313955        1 TEMP              0 ****  ****    0 ROOT


##########                                Name:    ZINC000081577146
##########                DOCK_Rotatable_Bonds:                   4
##########                         Heavy_Atoms:                  25
##########                    Molecular_Weight:             355.464
##########                DOCK_Rotatable_Bonds:                   4
##########                       Formal_Charge:                0.02
##########                     HBond_Acceptors:                   7
##########                        HBond_Donors:                   0
##########                         Heavy_Atoms:                  25
##########                          Grid_Score:          -30.168291
##########                     Grid_vdw_energy:          -29.930019
##########                      Grid_es_energy:           -0.238272
##########           Internal_energy_repulsive:           12.860828

@<TRIPOS>MOLECULE
ZINC000081577146
 46 49 1 0 0
SMALL
USER_CHARGES


@<TRIPOS>ATOM
      1 C1         -6.2359    1.1805   50.5492 C.3     1  ZINC000081577146   -0.0700
      2 C2         -5.0495    2.1062   50.6304 C.2     1  ZINC000081577146    0.2900
      3 N3         -4.9872    3.0400   51.5345 N.2     1  ZINC000081577146   -0.4800
      4 S4         -3.5092    3.8374   51.2737 S.3     1  ZINC000081577146    0.1900
      5 C5         -3.0535    2.8486   49.9381 C.2     1  ZINC000081577146    0.2700
      6 N6         -1.8967    2.9323   49.1846 N.3     1  ZINC000081577146   -0.4300
      7 C7         -1.4734    4.3303   49.0231 C.3     1  ZINC000081577146    0.0700
      8 C8         -0.1510    4.3744   48.2538 C.3     1  ZINC000081577146    0.0500
      9 N9         -0.3257    3.7258   46.9469 N.3     1  ZINC000081577146   -0.5200
     10 C10         0.9030    3.8146   46.1466 C.3     1  ZINC000081577146    0.1900
     11 H11         1.4023    4.7616   46.3512 H       1  ZINC000081577146    0.0700
     12 C12         0.5501    3.7349   44.6600 C.3     1  ZINC000081577146   -0.1500
     13 C13         1.8207    2.6748   46.5068 C.2     1  ZINC000081577146    0.1900
     14 N14         2.2671    1.7721   45.6790 N.2     1  ZINC000081577146   -0.4500
     15 C15         3.0551    0.9189   46.3500 C.2     1  ZINC000081577146   -0.0200
     16 C16         3.0871    1.3245   47.6453 C.2     1  ZINC000081577146    0.0000
     17 C17         3.8303    0.6841   48.7510 C.ar    1  ZINC000081577146   -0.0200
     18 C18         4.5001   -0.5220   48.5392 C.ar    1  ZINC000081577146   -0.1000
     19 C19         5.1922   -1.1142   49.5754 C.ar    1  ZINC000081577146   -0.1200
     20 C20         5.2229   -0.5155   50.8223 C.ar    1  ZINC000081577146   -0.1100
     21 C21         4.5606    0.6797   51.0390 C.ar    1  ZINC000081577146   -0.1100
     22 C22         3.8699    1.2856   50.0098 C.ar    1  ZINC000081577146   -0.0900
     23 O23         2.3137    2.4294   47.7284 O.3     1  ZINC000081577146   -0.2000
     24 C24        -0.7490    2.3277   47.1083 C.3     1  ZINC000081577146    0.0600
     25 C25        -2.0714    2.2836   47.8776 C.3     1  ZINC000081577146    0.0500
     26 N26        -4.0434    1.9929   49.7946 N.2     1  ZINC000081577146   -0.5400
     27 H27        -6.0583    0.3065   51.1758 H       1  ZINC000081577146    0.0900
     28 H28        -7.1279    1.7016   50.8968 H       1  ZINC000081577146    0.0900
     29 H29        -6.3795    0.8637   49.5161 H       1  ZINC000081577146    0.0900
     30 H30        -2.2349    4.8791   48.4690 H       1  ZINC000081577146    0.0700
     31 H31        -1.3386    4.7851   50.0045 H       1  ZINC000081577146    0.1100
     32 H32         0.1502    5.4117   48.1076 H       1  ZINC000081577146    0.1000
     33 H33         0.6173    3.8488   48.8209 H       1  ZINC000081577146    0.0600
     34 H34         0.0509    2.7879   44.4552 H       1  ZINC000081577146    0.0800
     35 H35        -0.1136    4.5593   44.3994 H       1  ZINC000081577146    0.0800
     36 H36         1.4618    3.8008   44.0661 H       1  ZINC000081577146    0.0700
     37 H37         3.5703    0.0650   45.9355 H       1  ZINC000081577146    0.1900
     38 H38         4.4764   -0.9907   47.5665 H       1  ZINC000081577146    0.1300
     39 H39         5.7110   -2.0475   49.4128 H       1  ZINC000081577146    0.1300
     40 H40         5.7659   -0.9835   51.6301 H       1  ZINC000081577146    0.1300
     41 H41         4.5879    1.1414   52.0149 H       1  ZINC000081577146    0.1300
     42 H42         3.3537    2.2188   50.1802 H       1  ZINC000081577146    0.1300
     43 H43        -0.8838    1.8729   46.1270 H       1  ZINC000081577146    0.0900
     44 H44         0.0125    1.7789   47.6624 H       1  ZINC000081577146    0.0500
     45 H45        -2.3726    1.2463   48.0238 H       1  ZINC000081577146    0.1000
     46 H46        -2.8396    2.8092   47.3106 H       1  ZINC000081577146    0.0800
@<TRIPOS>BOND
     1     1     2    1
     2     1    27    1
     3     1    28    1
     4     1    29    1
     5     2    26    1
     6     2     3    2
     7     3     4    1
     8     4     5    1
     9     5     6    1
    10     5    26    2
    11     6    25    1
    12     6     7    1
    13     7     8    1
    14     7    30    1
    15     7    31    1
    16     8     9    1
    17     8    32    1
    18     8    33    1
    19     9    10    1
    20     9    24    1
    21    10    11    1
    22    10    12    1
    23    10    13    1
    24    12    34    1
    25    12    35    1
    26    12    36    1
    27    13    23    1
    28    13    14    2
    29    14    15    1
    30    15    16    2
    31    15    37    1
    32    16    17    1
    33    16    23    1
    34    17    22   ar
    35    17    18   ar
    36    18    19   ar
    37    18    38    1
    38    19    20   ar
    39    19    39    1
    40    20    21   ar
    41    20    40    1
    42    21    22   ar
    43    21    41    1
    44    22    42    1
    45    24    25    1
    46    24    43    1
    47    24    44    1
    48    25    45    1
    49    25    46    1
@<TRIPOS>SUBSTRUCTURE
     1 ZINC000081577146        1 TEMP              0 ****  ****    0 ROOT


##########                                Name:    ZINC000000992968
##########                DOCK_Rotatable_Bonds:                   8
##########                         Heavy_Atoms:                  27
##########                    Molecular_Weight:             384.772
##########                DOCK_Rotatable_Bonds:                   8
##########                       Formal_Charge:           0.0199999
##########                     HBond_Acceptors:                   7
##########                        HBond_Donors:                   0
##########                         Heavy_Atoms:                  27
##########                          Grid_Score:          -30.166822
##########                     Grid_vdw_energy:          -29.661882
##########                      Grid_es_energy:           -0.504940
##########           Internal_energy_repulsive:            5.775575

@<TRIPOS>MOLECULE
ZINC000000992968
 40 42 1 0 0
SMALL
USER_CHARGES


@<TRIPOS>ATOM
      1 O1        -11.5539   -0.6819   52.1410 O.2     1  ZINC000000992968   -0.4600
      2 C2        -11.2358   -1.1521   53.2167 C.2     1  ZINC000000992968    0.5600
      3 O3         -9.9408   -1.1531   53.5962 O.3     1  ZINC000000992968   -0.2900
      4 C4         -9.1128   -0.2341   53.0384 C.ar    1  ZINC000000992968    0.1200
      5 C5         -8.0017   -0.6519   52.3138 C.ar    1  ZINC000000992968   -0.1300
      6 C6         -7.1587    0.2760   51.7464 C.ar    1  ZINC000000992968   -0.0400
      7 C7         -7.4213    1.6429   51.8993 C.ar    1  ZINC000000992968   -0.1600
      8 C8         -6.5250    2.6376   51.2953 C.2     1  ZINC000000992968    0.4000
      9 O9         -6.9735    3.4890   50.5570 O.2     1  ZINC000000992968   -0.4200
     10 C10        -5.0481    2.6004   51.5931 C.3     1  ZINC000000992968    0.0200
     11 O11        -4.3015    2.6940   50.3513 O.3     1  ZINC000000992968   -0.3300
     12 C12        -3.0198    3.0999   50.4373 C.2     1  ZINC000000992968    0.5100
     13 O13        -2.6543    3.7597   51.3896 O.2     1  ZINC000000992968   -0.5000
     14 C14        -2.0593    2.7427   49.3742 C.ar    1  ZINC000000992968   -0.1300
     15 C15        -2.5206    2.3195   48.1257 C.ar    1  ZINC000000992968   -0.0500
     16 C16        -1.6186    1.9879   47.1369 C.ar    1  ZINC000000992968   -0.1200
     17 C17        -0.2575    2.0733   47.3800 C.ar    1  ZINC000000992968    0.0000
     18 Cl18        0.8717    1.6535   46.1301 Cl      1  ZINC000000992968   -0.0500
     19 C19         0.2061    2.4928   48.6161 C.ar    1  ZINC000000992968   -0.1200
     20 C20        -0.6858    2.8324   49.6112 C.ar    1  ZINC000000992968   -0.0400
     21 C21        -8.5416    2.0582   52.6294 C.ar    1  ZINC000000992968   -0.0600
     22 C22        -9.3813    1.1220   53.1883 C.ar    1  ZINC000000992968   -0.1200
     23 C23       -12.2589   -1.7116   54.1026 C.2     1  ZINC000000992968   -0.0700
     24 C24       -12.0346   -2.3164   55.3074 C.2     1  ZINC000000992968   -0.0900
     25 C25       -13.2890   -2.6975   55.8070 C.2     1  ZINC000000992968   -0.2300
     26 C26       -14.2129   -2.3140   54.8978 C.2     1  ZINC000000992968    0.0200
     27 O27       -13.5890   -1.7154   53.8753 O.3     1  ZINC000000992968   -0.1500
     28 H28        -7.8000   -1.7064   52.1965 H       1  ZINC000000992968    0.1400
     29 H29        -6.2957   -0.0494   51.1845 H       1  ZINC000000992968    0.1500
     30 H30        -4.7864    3.4389   52.2384 H       1  ZINC000000992968    0.1100
     31 H31        -4.8023    1.6648   52.0952 H       1  ZINC000000992968    0.1100
     32 H32        -3.5815    2.2519   47.9353 H       1  ZINC000000992968    0.1500
     33 H33        -1.9741    1.6605   46.1711 H       1  ZINC000000992968    0.1500
     34 H34         1.2685    2.5577   48.7993 H       1  ZINC000000992968    0.1500
     35 H35        -0.3230    3.1596   50.5743 H       1  ZINC000000992968    0.1500
     36 H36        -8.7485    3.1113   52.7504 H       1  ZINC000000992968    0.1400
     37 H37       -10.2459    1.4413   53.7514 H       1  ZINC000000992968    0.1400
     38 H38       -11.0773   -2.4711   55.7828 H       1  ZINC000000992968    0.1700
     39 H39       -13.4805   -3.2024   56.7423 H       1  ZINC000000992968    0.1700
     40 H40       -15.2792   -2.4625   54.9838 H       1  ZINC000000992968    0.2200
@<TRIPOS>BOND
     1     1     2    2
     2     2     3    1
     3     2    23    1
     4     3     4    1
     5     4    22   ar
     6     4     5   ar
     7     5     6   ar
     8     5    28    1
     9     6     7   ar
    10     6    29    1
    11     7     8    1
    12     7    21   ar
    13     8     9    2
    14     8    10    1
    15    10    11    1
    16    10    30    1
    17    10    31    1
    18    11    12    1
    19    12    13    2
    20    12    14    1
    21    14    20   ar
    22    14    15   ar
    23    15    16   ar
    24    15    32    1
    25    16    17   ar
    26    16    33    1
    27    17    18    1
    28    17    19   ar
    29    19    20   ar
    30    19    34    1
    31    20    35    1
    32    21    22   ar
    33    21    36    1
    34    22    37    1
    35    23    27    1
    36    23    24    2
    37    24    25    1
    38    24    38    1
    39    25    26    2
    40    25    39    1
    41    26    27    1
    42    26    40    1
@<TRIPOS>SUBSTRUCTURE
     1 ZINC000000992968        1 TEMP              0 ****  ****    0 ROOT


##########                                Name:    ZINC000482846390
##########                DOCK_Rotatable_Bonds:                   9
##########                         Heavy_Atoms:                  30
##########                    Molecular_Weight:             420.469
##########                DOCK_Rotatable_Bonds:                   9
##########                       Formal_Charge:          -0.0100011
##########                     HBond_Acceptors:                  11
##########                        HBond_Donors:                   2
##########                         Heavy_Atoms:                  30
##########                          Grid_Score:          -30.161852
##########                     Grid_vdw_energy:          -28.964020
##########                      Grid_es_energy:           -1.197831
##########           Internal_energy_repulsive:           26.023205

@<TRIPOS>MOLECULE
ZINC000482846390
 58 60 1 0 0
SMALL
USER_CHARGES


@<TRIPOS>ATOM
      1 C1         -2.1982    4.3470   57.9546 C.3     1  ZINC000482846390   -0.1000
      2 C2         -1.1967    3.4661   57.2533 C.2     1  ZINC000482846390    0.0900
      3 C3          0.0207    3.8457   56.8005 C.2     1  ZINC000482846390   -0.2700
      4 C4          0.6291    2.7307   56.2151 C.2     1  ZINC000482846390    0.0700
      5 C5          1.9963    2.7007   55.5820 C.3     1  ZINC000482846390   -0.0500
      6 C6          1.9006    3.1955   54.1375 C.3     1  ZINC000482846390    0.1500
      7 H7          1.6882    2.3536   53.4784 H       1  ZINC000482846390    0.1000
      8 C8          3.2271    3.8399   53.7302 C.3     1  ZINC000482846390   -0.1700
      9 N9          0.8242    4.1835   54.0299 N.am    1  ZINC000482846390   -0.6800
     10 C10         0.1916    4.3655   52.8539 C.2     1  ZINC000482846390    0.5100
     11 O11         0.5126    3.7100   51.8845 O.2     1  ZINC000482846390   -0.5200
     12 C12        -0.9052    5.3746   52.7438 C.2     1  ZINC000482846390    0.5100
     13 O13        -0.6427    6.5594   52.7515 O.2     1  ZINC000482846390   -0.5100
     14 N14        -2.1859    4.9690   52.6358 N.am    1  ZINC000482846390   -0.5900
     15 C15        -3.2740    5.9501   52.5206 C.3     1  ZINC000482846390    0.0500
     16 C16        -4.0818    5.6396   51.2544 C.3     1  ZINC000482846390    0.1000
     17 N17        -4.4152    4.2083   51.2492 N.am    1  ZINC000482846390   -0.6000
     18 C18        -5.6958    3.8026   51.1403 C.2     1  ZINC000482846390    0.5200
     19 O19        -6.5859    4.6220   51.0455 O.2     1  ZINC000482846390   -0.5000
     20 C20        -6.0199    2.3437   51.1364 C.2     1  ZINC000482846390    0.5200
     21 O21        -5.7021    1.6541   50.1898 O.2     1  ZINC000482846390   -0.5000
     22 N22        -6.6650    1.7938   52.1842 N.am    1  ZINC000482846390   -0.6000
     23 C23        -7.0657    2.6109   53.3406 C.3     1  ZINC000482846390    0.0700
     24 C24        -8.5479    2.3469   53.6287 C.3     1  ZINC000482846390    0.0500
     25 O25        -8.7616    0.9379   53.7424 O.3     1  ZINC000482846390   -0.3700
     26 C26        -8.4757    0.2044   52.5490 C.3     1  ZINC000482846390    0.0500
     27 C27        -6.9947    0.3599   52.2031 C.3     1  ZINC000482846390    0.0700
     28 C28        -3.3270    3.2271   51.3644 C.3     1  ZINC000482846390    0.0900
     29 C29        -2.5188    3.5376   52.6250 C.3     1  ZINC000482846390    0.0900
     30 N30        -0.1934    1.7179   56.3128 N.2     1  ZINC000482846390   -0.2800
     31 N31        -1.3509    2.1558   56.9692 N.pl3   1  ZINC000482846390   -0.4700
     32 H32        -2.0215    4.3134   59.0297 H       1  ZINC000482846390    0.0800
     33 H33        -2.0910    5.3724   57.6006 H       1  ZINC000482846390    0.0900
     34 H34        -3.2065    3.9924   57.7409 H       1  ZINC000482846390    0.0700
     35 H35         0.4470    4.8350   56.8774 H       1  ZINC000482846390    0.1500
     36 H36         2.6710    3.3471   56.1436 H       1  ZINC000482846390    0.0900
     37 H37         2.3790    1.6801   55.5920 H       1  ZINC000482846390    0.1100
     38 H38         4.0279    3.1049   53.8101 H       1  ZINC000482846390    0.0700
     39 H39         3.1588    4.1925   52.7010 H       1  ZINC000482846390    0.0700
     40 H40         3.4395    4.6818   54.3891 H       1  ZINC000482846390    0.0600
     41 H41         0.5669    4.7066   54.8051 H       1  ZINC000482846390    0.4200
     42 H42        -3.9224    5.8815   53.3941 H       1  ZINC000482846390    0.0800
     43 H43        -2.8555    6.9541   52.4505 H       1  ZINC000482846390    0.1600
     44 H44        -4.9989    6.2288   51.2518 H       1  ZINC000482846390    0.1100
     45 H45        -3.4872    5.8799   50.3731 H       1  ZINC000482846390    0.0800
     46 H46        -6.4680    2.3355   54.2095 H       1  ZINC000482846390    0.0900
     47 H47        -6.9184    3.6667   53.1129 H       1  ZINC000482846390    0.0900
     48 H48        -8.8299    2.8343   54.5620 H       1  ZINC000482846390    0.1100
     49 H49        -9.1535    2.7423   52.8132 H       1  ZINC000482846390    0.0600
     50 H50        -8.7057   -0.8495   52.7056 H       1  ZINC000482846390    0.1100
     51 H51        -9.0809    0.5920   51.7296 H       1  ZINC000482846390    0.0600
     52 H52        -6.7987   -0.0764   51.2236 H       1  ZINC000482846390    0.1100
     53 H53        -6.3871   -0.1411   52.9568 H       1  ZINC000482846390    0.0800
     54 H54        -3.7457    2.2232   51.4345 H       1  ZINC000482846390    0.0900
     55 H55        -2.6787    3.2957   50.4908 H       1  ZINC000482846390    0.0900
     56 H56        -1.6021    2.9477   52.6263 H       1  ZINC000482846390    0.1100
     57 H57        -3.1117    3.2986   53.5078 H       1  ZINC000482846390    0.0800
     58 H58        -2.1284    1.6144   57.1774 H       1  ZINC000482846390    0.4400
@<TRIPOS>BOND
     1     1     2    1
     2     1    32    1
     3     1    33    1
     4     1    34    1
     5     2    31    1
     6     2     3    2
     7     3     4    1
     8     3    35    1
     9     4     5    1
    10     4    30    2
    11     5     6    1
    12     5    36    1
    13     5    37    1
    14     6     7    1
    15     6     8    1
    16     6     9    1
    17     8    38    1
    18     8    39    1
    19     8    40    1
    20     9    10   am
    21     9    41    1
    22    10    11    2
    23    10    12    1
    24    12    13    2
    25    12    14   am
    26    14    29    1
    27    14    15    1
    28    15    16    1
    29    15    42    1
    30    15    43    1
    31    16    17    1
    32    16    44    1
    33    16    45    1
    34    17    18   am
    35    17    28    1
    36    18    19    2
    37    18    20    1
    38    20    21    2
    39    20    22   am
    40    22    27    1
    41    22    23    1
    42    23    24    1
    43    23    46    1
    44    23    47    1
    45    24    25    1
    46    24    48    1
    47    24    49    1
    48    25    26    1
    49    26    27    1
    50    26    50    1
    51    26    51    1
    52    27    52    1
    53    27    53    1
    54    28    29    1
    55    28    54    1
    56    28    55    1
    57    29    56    1
    58    29    57    1
    59    30    31    1
    60    31    58    1
@<TRIPOS>SUBSTRUCTURE
     1 ZINC000482846390        1 TEMP              0 ****  ****    0 ROOT


##########                                Name:    ZINC001282645012
##########                DOCK_Rotatable_Bonds:                   9
##########                         Heavy_Atoms:                  27
##########                    Molecular_Weight:             372.511
##########                DOCK_Rotatable_Bonds:                   9
##########                       Formal_Charge:          -0.0200004
##########                     HBond_Acceptors:                   6
##########                        HBond_Donors:                   1
##########                         Heavy_Atoms:                  27
##########                          Grid_Score:          -30.127031
##########                     Grid_vdw_energy:          -28.913437
##########                      Grid_es_energy:           -1.213594
##########           Internal_energy_repulsive:           31.229000

@<TRIPOS>MOLECULE
ZINC001282645012
 59 61 1 0 0
SMALL
USER_CHARGES


@<TRIPOS>ATOM
      1 C1          2.2210   -1.6173   49.1174 C.2     1  ZINC001282645012   -0.1900
      2 C2          2.1710   -0.6051   48.2873 C.2     1  ZINC001282645012   -0.1300
      3 C3          3.4140    0.1980   48.0025 C.3     1  ZINC001282645012   -0.0500
      4 C4          4.0412    0.6520   49.3222 C.3     1  ZINC001282645012   -0.1500
      5 C5          4.4147   -0.6666   47.2330 C.3     1  ZINC001282645012   -0.1400
      6 C6          3.0536    1.4055   47.1760 C.2     1  ZINC001282645012    0.5500
      7 O7          3.6480    1.6330   46.1437 O.2     1  ZINC001282645012   -0.5300
      8 N8          2.0707    2.2325   47.5840 N.am    1  ZINC001282645012   -0.6300
      9 C9          1.5189    3.4843   46.9629 C.3     1  ZINC001282645012    0.1200
     10 H10         1.9824    3.7946   46.0266 H       1  ZINC001282645012    0.1300
     11 C11         1.6546    4.4896   48.1460 C.3     1  ZINC001282645012   -0.1300
     12 C12         1.4303    3.6055   49.3974 C.3     1  ZINC001282645012   -0.1300
     13 C13         1.1851    2.1827   48.7967 C.3     1  ZINC001282645012    0.1200
     14 H14         1.3579    1.3487   49.4769 H       1  ZINC001282645012    0.1200
     15 C15        -0.2371    2.2501   48.1631 C.3     1  ZINC001282645012    0.1300
     16 H16        -0.5772    1.2552   47.8759 H       1  ZINC001282645012    0.1000
     17 N17        -1.1864    2.8703   49.0907 N.am    1  ZINC001282645012   -0.7100
     18 C18        -2.4803    2.4934   49.0830 C.2     1  ZINC001282645012    0.5100
     19 O19        -2.8592    1.6418   48.3069 O.2     1  ZINC001282645012   -0.5100
     20 C20        -3.4564    3.1300   50.0384 C.3     1  ZINC001282645012    0.1200
     21 H21        -4.1555    3.7540   49.4815 H       1  ZINC001282645012    0.1300
     22 C22        -4.2281    2.0381   50.7821 C.3     1  ZINC001282645012   -0.1100
     23 C23        -5.7294    2.3153   50.6804 C.3     1  ZINC001282645012   -0.1000
     24 C24        -6.5081    1.0915   51.1671 C.3     1  ZINC001282645012   -0.1500
     25 C25        -6.0848    3.5241   51.5484 C.3     1  ZINC001282645012   -0.1500
     26 N26        -2.7268    3.9561   51.0036 N.pl3   1  ZINC001282645012   -0.4500
     27 C27        -2.8286    5.3129   51.1522 C.2     1  ZINC001282645012   -0.0600
     28 C28        -1.9899    5.6599   52.1470 C.2     1  ZINC001282645012   -0.0200
     29 N29        -1.3922    4.5455   52.5936 N.2     1  ZINC001282645012   -0.4900
     30 C30        -1.8324    3.5203   51.9167 C.2     1  ZINC001282645012    0.1900
     31 C31         0.0029    3.1326   46.8787 C.3     1  ZINC001282645012   -0.1400
     32 H32         3.1531   -1.8762   49.5978 H       1  ZINC001282645012    0.1000
     33 H33         1.3293   -2.1901   49.3250 H       1  ZINC001282645012    0.1000
     34 H34         1.2390   -0.3462   47.8070 H       1  ZINC001282645012    0.1100
     35 H35         4.3020   -0.2214   49.9200 H       1  ZINC001282645012    0.0700
     36 H36         4.9403    1.2328   49.1162 H       1  ZINC001282645012    0.0700
     37 H37         3.3284    1.2679   49.8704 H       1  ZINC001282645012    0.0600
     38 H38         3.9678   -0.9901   46.2930 H       1  ZINC001282645012    0.0600
     39 H39         5.3137   -0.0857   47.0272 H       1  ZINC001282645012    0.0700
     40 H40         4.6753   -1.5399   47.8308 H       1  ZINC001282645012    0.0700
     41 H41         2.6509    4.9317   48.1618 H       1  ZINC001282645012    0.0800
     42 H42         0.8906    5.2642   48.0812 H       1  ZINC001282645012    0.0800
     43 H43         2.3153    3.6092   50.0337 H       1  ZINC001282645012    0.0700
     44 H44         0.5551    3.9417   49.9531 H       1  ZINC001282645012    0.0800
     45 H45        -0.8836    3.5522   49.7106 H       1  ZINC001282645012    0.4000
     46 H46        -4.0066    1.0686   50.3359 H       1  ZINC001282645012    0.0900
     47 H47        -3.9299    2.0324   51.8305 H       1  ZINC001282645012    0.0800
     48 H48        -5.9910    2.5234   49.6429 H       1  ZINC001282645012    0.0700
     49 H49        -6.2465    0.8833   52.2045 H       1  ZINC001282645012    0.0600
     50 H50        -7.5776    1.2889   51.0946 H       1  ZINC001282645012    0.0600
     51 H51        -6.2548    0.2303   50.5487 H       1  ZINC001282645012    0.0500
     52 H52        -5.5968    4.4136   51.1497 H       1  ZINC001282645012    0.0600
     53 H53        -7.1650    3.6695   51.5440 H       1  ZINC001282645012    0.0600
     54 H54        -5.7456    3.3505   52.5695 H       1  ZINC001282645012    0.0600
     55 H55        -3.4601    5.9775   50.5812 H       1  ZINC001282645012    0.1700
     56 H56        -1.8270    6.6604   52.5199 H       1  ZINC001282645012    0.1700
     57 H57        -1.5271    2.4941   52.0588 H       1  ZINC001282645012    0.2000
     58 H58        -0.5865    4.0483   46.9263 H       1  ZINC001282645012    0.0900
     59 H59        -0.2333    2.5692   45.9761 H       1  ZINC001282645012    0.0900
@<TRIPOS>BOND
     1     1     2    2
     2     1    32    1
     3     1    33    1
     4     2     3    1
     5     2    34    1
     6     3     4    1
     7     3     5    1
     8     3     6    1
     9     4    35    1
    10     4    36    1
    11     4    37    1
    12     5    38    1
    13     5    39    1
    14     5    40    1
    15     6     7    2
    16     6     8   am
    17     8    13    1
    18     8     9    1
    19     9    10    1
    20     9    31    1
    21     9    11    1
    22    11    12    1
    23    11    41    1
    24    11    42    1
    25    12    13    1
    26    12    43    1
    27    12    44    1
    28    13    14    1
    29    13    15    1
    30    15    16    1
    31    15    17    1
    32    15    31    1
    33    17    18   am
    34    17    45    1
    35    18    19    2
    36    18    20    1
    37    20    21    1
    38    20    22    1
    39    20    26    1
    40    22    23    1
    41    22    46    1
    42    22    47    1
    43    23    24    1
    44    23    25    1
    45    23    48    1
    46    24    49    1
    47    24    50    1
    48    24    51    1
    49    25    52    1
    50    25    53    1
    51    25    54    1
    52    26    30    1
    53    26    27    1
    54    27    28    2
    55    27    55    1
    56    28    29    1
    57    28    56    1
    58    29    30    2
    59    30    57    1
    60    31    58    1
    61    31    59    1
@<TRIPOS>SUBSTRUCTURE
     1 ZINC001282645012        1 TEMP              0 ****  ****    0 ROOT


##########                                Name:    ZINC001345966764
##########                DOCK_Rotatable_Bonds:                  10
##########                         Heavy_Atoms:                  22
##########                    Molecular_Weight:             333.258
##########                DOCK_Rotatable_Bonds:                  10
##########                       Formal_Charge:           0.0099997
##########                     HBond_Acceptors:                  11
##########                        HBond_Donors:                   4
##########                         Heavy_Atoms:                  22
##########                          Grid_Score:          -30.125940
##########                     Grid_vdw_energy:          -29.050669
##########                      Grid_es_energy:           -1.075272
##########           Internal_energy_repulsive:            5.934713

@<TRIPOS>MOLECULE
ZINC001345966764
 38 38 1 0 0
SMALL
USER_CHARGES


@<TRIPOS>ATOM
      1 N1          1.9323   -2.3318   48.9177 N.3     1  ZINC001345966764   -0.8400
      2 C2          2.1288   -1.3293   49.9734 C.3     1  ZINC001345966764    0.0200
      3 C3          3.1776   -0.3113   49.5211 C.3     1  ZINC001345966764    0.2800
      4 F4          3.2422    0.7348   50.4479 F       1  ZINC001345966764   -0.1900
      5 F5          4.4267   -0.9355   49.4347 F       1  ZINC001345966764   -0.1800
      6 C6          2.7897    0.2454   48.1499 C.3     1  ZINC001345966764    0.0800
      7 N7          1.5496    1.0164   48.2688 N.am    1  ZINC001345966764   -0.7000
      8 C8          0.7969    1.2546   47.1764 C.2     1  ZINC001345966764    0.5100
      9 O9          1.1471    0.8319   46.0942 O.2     1  ZINC001345966764   -0.5100
     10 C10        -0.4692    2.0395   47.2980 C.2     1  ZINC001345966764    0.5100
     11 O11        -1.0429    2.4239   46.3002 O.2     1  ZINC001345966764   -0.5100
     12 N12        -0.9734    2.3204   48.5158 N.am    1  ZINC001345966764   -0.7000
     13 C13        -2.2154    3.0883   48.6350 C.3     1  ZINC001345966764    0.1200
     14 C14        -2.8378    2.8413   50.0107 C.3     1  ZINC001345966764    0.0600
     15 H15        -2.0847    2.4709   50.7061 H       1  ZINC001345966764    0.0900
     16 C16        -3.4781    4.1386   50.5521 C.3     1  ZINC001345966764   -0.1400
     17 C17        -4.7526    3.6534   51.2786 C.3     1  ZINC001345966764   -0.1500
     18 C18        -4.7314    2.1204   51.0901 C.3     1  ZINC001345966764    0.0300
     19 H19        -4.2701    1.6384   51.9520 H       1  ZINC001345966764    0.1200
     20 C20        -6.1512    1.5898   50.8812 C.3     1  ZINC001345966764    0.4600
     21 F21        -6.1800    0.2168   51.1482 F       1  ZINC001345966764   -0.1700
     22 F22        -7.0285    2.2518   51.7468 F       1  ZINC001345966764   -0.1700
     23 F23        -6.5434    1.8158   49.5574 F       1  ZINC001345966764   -0.1700
     24 O24        -3.9308    1.9029   49.9068 O.3     1  ZINC001345966764   -0.3500
     25 H25         2.7919   -2.8214   48.7194 H       1  ZINC001345966764    0.3500
     26 H26         1.1970   -2.9772   49.1643 H       1  ZINC001345966764    0.3600
     27 H27         1.1863   -0.8177   50.1687 H       1  ZINC001345966764    0.1100
     28 H28         2.4700   -1.8224   50.8837 H       1  ZINC001345966764    0.0700
     29 H29         3.5859    0.8925   47.7820 H       1  ZINC001345966764    0.1100
     30 H30         2.6398   -0.5786   47.4524 H       1  ZINC001345966764    0.1100
     31 H31         1.2702    1.3553   49.1335 H       1  ZINC001345966764    0.4200
     32 H32        -0.5142    2.0142   49.3134 H       1  ZINC001345966764    0.4200
     33 H33        -1.9984    4.1503   48.5198 H       1  ZINC001345966764    0.1000
     34 H34        -2.9130    2.7737   47.8588 H       1  ZINC001345966764    0.0900
     35 H35        -2.8048    4.6338   51.2517 H       1  ZINC001345966764    0.0900
     36 H36        -3.7375    4.8078   49.7316 H       1  ZINC001345966764    0.0900
     37 H37        -4.7093    3.9088   52.3374 H       1  ZINC001345966764    0.1000
     38 H38        -5.6420    4.0828   50.8173 H       1  ZINC001345966764    0.0900
@<TRIPOS>BOND
     1     1     2    1
     2     1    25    1
     3     1    26    1
     4     2     3    1
     5     2    27    1
     6     2    28    1
     7     3     4    1
     8     3     5    1
     9     3     6    1
    10     6     7    1
    11     6    29    1
    12     6    30    1
    13     7     8   am
    14     7    31    1
    15     8     9    2
    16     8    10    1
    17    10    11    2
    18    10    12   am
    19    12    13    1
    20    12    32    1
    21    13    14    1
    22    13    33    1
    23    13    34    1
    24    14    15    1
    25    14    24    1
    26    14    16    1
    27    16    17    1
    28    16    35    1
    29    16    36    1
    30    17    18    1
    31    17    37    1
    32    17    38    1
    33    18    19    1
    34    18    20    1
    35    18    24    1
    36    20    21    1
    37    20    22    1
    38    20    23    1
@<TRIPOS>SUBSTRUCTURE
     1 ZINC001345966764        1 TEMP              0 ****  ****    0 ROOT


##########                                Name:    ZINC000066361645
##########                DOCK_Rotatable_Bonds:                   8
##########                         Heavy_Atoms:                  27
##########                    Molecular_Weight:             392.519
##########                DOCK_Rotatable_Bonds:                   8
##########                       Formal_Charge:           0.0100004
##########                     HBond_Acceptors:                   7
##########                        HBond_Donors:                   2
##########                         Heavy_Atoms:                  27
##########                          Grid_Score:          -30.115280
##########                     Grid_vdw_energy:          -31.201797
##########                      Grid_es_energy:            1.086517
##########           Internal_energy_repulsive:           10.307954

@<TRIPOS>MOLECULE
ZINC000066361645
 55 57 1 0 0
SMALL
USER_CHARGES


@<TRIPOS>ATOM
      1 C1         -6.1257    1.3618   50.6354 C.3     1  ZINC000066361645   -0.1400
      2 S2         -5.5550    3.0054   51.1483 S.3     1  ZINC000066361645   -0.1100
      3 C3         -3.9645    3.1243   50.3996 C.ar    1  ZINC000066361645   -0.1200
      4 C4         -3.6528    2.3358   49.3021 C.ar    1  ZINC000066361645   -0.1100
      5 C5         -2.4010    2.4292   48.7113 C.ar    1  ZINC000066361645    0.0500
      6 C6         -1.4580    3.3149   49.2183 C.ar    1  ZINC000066361645    0.0700
      7 C7         -1.7673    4.1033   50.3171 C.ar    1  ZINC000066361645   -0.1100
      8 C8         -3.0189    4.0154   50.9059 C.ar    1  ZINC000066361645    0.1800
      9 N9         -3.3303    4.8137   52.0170 N.am    1  ZINC000066361645   -0.6600
     10 C10        -2.8281    4.5067   53.2294 C.2     1  ZINC000066361645    0.5100
     11 O11        -2.1068    3.5401   53.3601 O.2     1  ZINC000066361645   -0.5000
     12 C12        -3.1624    5.3642   54.4226 C.3     1  ZINC000066361645   -0.1500
     13 C13        -3.2761    4.4829   55.6681 C.3     1  ZINC000066361645    0.1600
     14 H14        -3.5450    3.4689   55.3725 H       1  ZINC000066361645    0.1000
     15 C15        -4.3547    5.0468   56.5953 C.3     1  ZINC000066361645   -0.1600
     16 N16        -1.9906    4.4621   56.3706 N.am    1  ZINC000066361645   -0.7200
     17 C17        -1.6159    3.3650   57.0580 C.2     1  ZINC000066361645    0.5300
     18 O18        -2.3424    2.3945   57.0939 O.2     1  ZINC000066361645   -0.5400
     19 C19        -0.2944    3.3444   57.7820 C.3     1  ZINC000066361645   -0.1100
     20 C20        -0.3927    2.4192   58.9965 C.3     1  ZINC000066361645   -0.1100
     21 C21         0.9490    2.3982   59.7316 C.3     1  ZINC000066361645   -0.1200
     22 C22         2.0395    1.8870   58.7880 C.3     1  ZINC000066361645   -0.1200
     23 C23         2.1378    2.8122   57.5734 C.3     1  ZINC000066361645   -0.1200
     24 C24         0.7961    2.8331   56.8383 C.3     1  ZINC000066361645   -0.1000
     25 O25        -0.2267    3.4248   48.6454 O.3     1  ZINC000066361645   -0.3000
     26 C26         0.1792    2.3574   47.7821 C.3     1  ZINC000066361645    0.0200
     27 C27        -0.9875    2.0316   46.8398 C.3     1  ZINC000066361645    0.0200
     28 O28        -2.1120    1.6439   47.6367 O.3     1  ZINC000066361645   -0.3100
     29 H29        -6.1704    1.3158   49.5473 H       1  ZINC000066361645    0.0900
     30 H30        -5.4322    0.6053   51.0029 H       1  ZINC000066361645    0.0900
     31 H31        -7.1174    1.1763   51.0480 H       1  ZINC000066361645    0.1100
     32 H32        -4.3856    1.6479   48.9069 H       1  ZINC000066361645    0.1400
     33 H33        -1.0328    4.7895   50.7121 H       1  ZINC000066361645    0.1600
     34 H34        -3.9070    5.5866   51.9125 H       1  ZINC000066361645    0.4100
     35 H35        -2.3752    6.1032   54.5711 H       1  ZINC000066361645    0.1000
     36 H36        -4.1107    5.8731   54.2500 H       1  ZINC000066361645    0.1200
     37 H37        -4.0858    6.0609   56.8910 H       1  ZINC000066361645    0.0600
     38 H38        -5.3111    5.0623   56.0727 H       1  ZINC000066361645    0.0700
     39 H39        -4.4356    4.4190   57.4826 H       1  ZINC000066361645    0.0700
     40 H40        -1.4090    5.2379   56.3409 H       1  ZINC000066361645    0.4000
     41 H41        -0.0453    4.3527   58.1125 H       1  ZINC000066361645    0.1000
     42 H42        -1.1695    2.7834   59.6688 H       1  ZINC000066361645    0.0600
     43 H43        -0.6416    1.4107   58.6660 H       1  ZINC000066361645    0.0700
     44 H44         1.1980    3.4066   60.0621 H       1  ZINC000066361645    0.0600
     45 H45         0.8791    1.7391   60.5969 H       1  ZINC000066361645    0.0700
     46 H46         2.9954    1.8721   59.3117 H       1  ZINC000066361645    0.0600
     47 H47         1.7906    0.8786   58.4574 H       1  ZINC000066361645    0.0600
     48 H48         2.3868    3.8206   57.9040 H       1  ZINC000066361645    0.0600
     49 H49         2.9148    2.4480   56.9011 H       1  ZINC000066361645    0.0700
     50 H50         0.5472    1.8248   56.5078 H       1  ZINC000066361645    0.0700
     51 H51         0.8662    3.4923   55.9731 H       1  ZINC000066361645    0.0700
     52 H52         1.0472    2.6657   47.1993 H       1  ZINC000066361645    0.1300
     53 H53         0.4282    1.4782   48.3765 H       1  ZINC000066361645    0.0800
     54 H54        -1.2409    2.9126   46.2502 H       1  ZINC000066361645    0.0800
     55 H55        -0.7071    1.2130   46.1769 H       1  ZINC000066361645    0.1200
@<TRIPOS>BOND
     1     1     2    1
     2     1    29    1
     3     1    30    1
     4     1    31    1
     5     2     3    1
     6     3     8   ar
     7     3     4   ar
     8     4     5   ar
     9     4    32    1
    10     5    28    1
    11     5     6   ar
    12     6     7   ar
    13     6    25    1
    14     7     8   ar
    15     7    33    1
    16     8     9    1
    17     9    10   am
    18     9    34    1
    19    10    11    2
    20    10    12    1
    21    12    13    1
    22    12    35    1
    23    12    36    1
    24    13    14    1
    25    13    15    1
    26    13    16    1
    27    15    37    1
    28    15    38    1
    29    15    39    1
    30    16    17   am
    31    16    40    1
    32    17    18    2
    33    17    19    1
    34    19    24    1
    35    19    20    1
    36    19    41    1
    37    20    21    1
    38    20    42    1
    39    20    43    1
    40    21    22    1
    41    21    44    1
    42    21    45    1
    43    22    23    1
    44    22    46    1
    45    22    47    1
    46    23    24    1
    47    23    48    1
    48    23    49    1
    49    24    50    1
    50    24    51    1
    51    25    26    1
    52    26    27    1
    53    26    52    1
    54    26    53    1
    55    27    28    1
    56    27    54    1
    57    27    55    1
@<TRIPOS>SUBSTRUCTURE
     1 ZINC000066361645        1 TEMP              0 ****  ****    0 ROOT


##########                                Name:    ZINC000195331548
##########                DOCK_Rotatable_Bonds:                   7
##########                         Heavy_Atoms:                  26
##########                    Molecular_Weight:             378.539
##########                DOCK_Rotatable_Bonds:                   7
##########                       Formal_Charge:          -0.0100004
##########                     HBond_Acceptors:                   7
##########                        HBond_Donors:                   2
##########                         Heavy_Atoms:                  26
##########                          Grid_Score:          -30.105221
##########                     Grid_vdw_energy:          -29.216421
##########                      Grid_es_energy:           -0.888800
##########           Internal_energy_repulsive:           24.352318

@<TRIPOS>MOLECULE
ZINC000195331548
 56 58 1 0 0
SMALL
USER_CHARGES


@<TRIPOS>ATOM
      1 C1          2.3385    2.8616   56.3294 C.3     1  ZINC000195331548   -0.0800
      2 C2          0.9370    3.0034   55.7941 C.2     1  ZINC000195331548    0.0700
      3 C3         -0.1314    2.5058   56.4241 C.2     1  ZINC000195331548   -0.2600
      4 S4         -1.5573    2.8991   55.4667 S.3     1  ZINC000195331548    0.1100
      5 C5         -0.5743    3.6862   54.3103 C.2     1  ZINC000195331548    0.0600
      6 C6         -1.0819    4.3559   53.0593 C.3     1  ZINC000195331548   -0.0100
      7 H7         -0.2749    4.4251   52.3299 H       1  ZINC000195331548    0.1100
      8 C8         -1.5851    5.7613   53.4001 C.3     1  ZINC000195331548   -0.1200
      9 C9         -2.1538    6.4117   52.1359 C.3     1  ZINC000195331548   -0.1100
     10 C10        -3.2735    5.5321   51.5752 C.3     1  ZINC000195331548    0.0500
     11 N11        -2.7415    4.1991   51.2645 N.3     1  ZINC000195331548   -0.5200
     12 C12        -3.7540    3.3709   50.5959 C.3     1  ZINC000195331548    0.0400
     13 C13        -3.1450    2.7133   49.3846 C.2     1  ZINC000195331548    0.5100
     14 O14        -3.8504    2.1167   48.5995 O.2     1  ZINC000195331548   -0.4400
     15 N15        -1.8158    2.7883   49.1738 N.am    1  ZINC000195331548   -0.7000
     16 C16        -1.2708    2.1989   48.0913 C.2     1  ZINC000195331548    0.6900
     17 O17        -1.9776    1.5983   47.3058 O.2     1  ZINC000195331548   -0.5300
     18 N18         0.0581    2.2753   47.8797 N.am    1  ZINC000195331548   -0.7300
     19 C19         0.6502    1.6359   46.7020 C.3     1  ZINC000195331548    0.1700
     20 H20        -0.1387    1.1953   46.0925 H       1  ZINC000195331548    0.0900
     21 C21         1.6205    0.5410   47.1499 C.3     1  ZINC000195331548   -0.1300
     22 C22         2.7278    1.1595   48.0055 C.3     1  ZINC000195331548   -0.1200
     23 C23         3.4835    2.2054   47.1833 C.3     1  ZINC000195331548   -0.1200
     24 C24         2.5133    3.3004   46.7354 C.3     1  ZINC000195331548   -0.1100
     25 C25         1.4059    2.6818   45.8798 C.3     1  ZINC000195331548   -0.1000
     26 H26         1.8465    2.2062   45.0037 H       1  ZINC000195331548    0.0900
     27 C27         0.4356    3.7769   45.4321 C.3     1  ZINC000195331548   -0.1500
     28 C28        -2.2328    3.5359   52.4718 C.3     1  ZINC000195331548    0.0600
     29 N29         0.6645    3.6286   54.6665 N.2     1  ZINC000195331548   -0.4700
     30 H30         2.5689    3.7098   56.9740 H       1  ZINC000195331548    0.0800
     31 H31         2.4167    1.9379   56.9029 H       1  ZINC000195331548    0.0800
     32 H32         3.0438    2.8343   55.4988 H       1  ZINC000195331548    0.0800
     33 H33        -0.1227    1.9620   57.3571 H       1  ZINC000195331548    0.1800
     34 H34        -2.3653    5.6951   54.1583 H       1  ZINC000195331548    0.0600
     35 H35        -0.7585    6.3621   53.7796 H       1  ZINC000195331548    0.0700
     36 H36        -2.5524    7.3961   52.3809 H       1  ZINC000195331548    0.0800
     37 H37        -1.3637    6.5134   51.3919 H       1  ZINC000195331548    0.0800
     38 H38        -3.6710    5.9851   50.6670 H       1  ZINC000195331548    0.0800
     39 H39        -4.0695    5.4422   52.3144 H       1  ZINC000195331548    0.0400
     40 H40        -4.5902    3.9982   50.2869 H       1  ZINC000195331548    0.1200
     41 H41        -4.1096    2.6048   51.2850 H       1  ZINC000195331548    0.0700
     42 H42        -1.2516    3.2666   49.8013 H       1  ZINC000195331548    0.4100
     43 H43         0.6224    2.7536   48.5072 H       1  ZINC000195331548    0.4000
     44 H44         2.0610    0.0654   46.2736 H       1  ZINC000195331548    0.0700
     45 H45         1.0821   -0.2042   47.7356 H       1  ZINC000195331548    0.0700
     46 H46         3.4191    0.3794   48.3245 H       1  ZINC000195331548    0.0600
     47 H47         2.2873    1.6351   48.8816 H       1  ZINC000195331548    0.0600
     48 H48         4.2725    2.6460   47.7928 H       1  ZINC000195331548    0.0600
     49 H49         3.9241    1.7297   46.3070 H       1  ZINC000195331548    0.0600
     50 H50         2.0727    3.7760   47.6117 H       1  ZINC000195331548    0.0600
     51 H51         3.0516    4.0455   46.1496 H       1  ZINC000195331548    0.0700
     52 H52        -0.0050    4.2525   46.3082 H       1  ZINC000195331548    0.0500
     53 H53         0.9740    4.5220   44.8463 H       1  ZINC000195331548    0.0600
     54 H54        -0.3533    3.3363   44.8226 H       1  ZINC000195331548    0.0600
     55 H55        -3.0336    3.4554   53.2068 H       1  ZINC000195331548    0.0400
     56 H56        -1.8742    2.5391   52.2148 H       1  ZINC000195331548    0.0900
@<TRIPOS>BOND
     1     1     2    1
     2     1    30    1
     3     1    31    1
     4     1    32    1
     5     2    29    1
     6     2     3    2
     7     3     4    1
     8     3    33    1
     9     4     5    1
    10     5     6    1
    11     5    29    2
    12     6     7    1
    13     6    28    1
    14     6     8    1
    15     8     9    1
    16     8    34    1
    17     8    35    1
    18     9    10    1
    19     9    36    1
    20     9    37    1
    21    10    11    1
    22    10    38    1
    23    10    39    1
    24    11    12    1
    25    11    28    1
    26    12    13    1
    27    12    40    1
    28    12    41    1
    29    13    14    2
    30    13    15   am
    31    15    16   am
    32    15    42    1
    33    16    17    2
    34    16    18   am
    35    18    19    1
    36    18    43    1
    37    19    20    1
    38    19    25    1
    39    19    21    1
    40    21    22    1
    41    21    44    1
    42    21    45    1
    43    22    23    1
    44    22    46    1
    45    22    47    1
    46    23    24    1
    47    23    48    1
    48    23    49    1
    49    24    25    1
    50    24    50    1
    51    24    51    1
    52    25    26    1
    53    25    27    1
    54    27    52    1
    55    27    53    1
    56    27    54    1
    57    28    55    1
    58    28    56    1
@<TRIPOS>SUBSTRUCTURE
     1 ZINC000195331548        1 TEMP              0 ****  ****    0 ROOT


##########                                Name:    ZINC001300804061
##########                DOCK_Rotatable_Bonds:                   5
##########                         Heavy_Atoms:                  27
##########                    Molecular_Weight:              390.55
##########                DOCK_Rotatable_Bonds:                   5
##########                       Formal_Charge:                0.01
##########                     HBond_Acceptors:                   7
##########                        HBond_Donors:                   0
##########                         Heavy_Atoms:                  27
##########                          Grid_Score:          -30.093708
##########                     Grid_vdw_energy:          -29.162008
##########                      Grid_es_energy:           -0.931699
##########           Internal_energy_repulsive:           13.434292

@<TRIPOS>MOLECULE
ZINC001300804061
 57 60 1 0 0
SMALL
USER_CHARGES


@<TRIPOS>ATOM
      1 C1          4.1037    0.2319   46.2524 C.3     1  ZINC001300804061    0.0300
      2 O2          3.3124    0.8936   45.2634 O.3     1  ZINC001300804061   -0.3800
      3 C3          2.6802    2.0877   45.7284 C.3     1  ZINC001300804061    0.1000
      4 H4          3.2375    2.4886   46.5751 H       1  ZINC001300804061    0.0700
      5 C5          1.2476    1.7712   46.1636 C.3     1  ZINC001300804061    0.0500
      6 N6          0.5905    3.0019   46.6218 N.3     1  ZINC001300804061   -0.4600
      7 C7         -0.6624    2.7304   47.1447 C.2     1  ZINC001300804061    0.3600
      8 N8         -1.5685    1.9362   46.6223 N.2     1  ZINC001300804061   -0.3000
      9 N9         -2.6167    1.9112   47.3653 N.2     1  ZINC001300804061   -0.2500
     10 C10        -2.4436    2.6901   48.4107 C.2     1  ZINC001300804061    0.2600
     11 C11        -3.4108    2.9302   49.4931 C.2     1  ZINC001300804061    0.0400
     12 C12        -3.6550    4.1270   50.0970 C.2     1  ZINC001300804061   -0.1300
     13 C13        -4.6477    3.8954   51.0688 C.2     1  ZINC001300804061   -0.2100
     14 C14        -4.9584    2.5850   51.0126 C.2     1  ZINC001300804061    0.0100
     15 C15        -5.9772    1.8865   51.8759 C.3     1  ZINC001300804061   -0.0800
     16 O16        -4.2139    2.0060   50.0562 O.3     1  ZINC001300804061   -0.1700
     17 N17        -1.1828    3.2342   48.3027 N.pl3   1  ZINC001300804061   -0.4600
     18 C18        -0.5380    4.1655   49.2317 C.3     1  ZINC001300804061    0.1200
     19 C19         0.7973    3.5804   49.6958 C.3     1  ZINC001300804061   -0.1000
     20 H20         1.4352    3.4032   48.8299 H       1  ZINC001300804061    0.0900
     21 C21         0.5478    2.2606   50.4197 C.3     1  ZINC001300804061   -0.1200
     22 C22         1.8601    1.5203   50.6604 C.3     1  ZINC001300804061   -0.1200
     23 C23         2.6839    2.2495   51.7249 C.3     1  ZINC001300804061   -0.0800
     24 S24         3.1110    3.9038   51.1051 S.3     1  ZINC001300804061   -0.2600
     25 C25         1.4851    4.5700   50.6399 C.3     1  ZINC001300804061   -0.0700
     26 C26         0.5064    3.9927   45.5413 C.3     1  ZINC001300804061    0.0600
     27 C27         1.9169    4.3756   45.0875 C.3     1  ZINC001300804061   -0.1100
     28 C28         2.6497    3.1226   44.6003 C.3     1  ZINC001300804061   -0.0900
     29 H29         2.1266    2.7063   43.7393 H       1  ZINC001300804061    0.0800
     30 C30         4.0803    3.4898   44.2009 C.3     1  ZINC001300804061   -0.1400
     31 H31         4.8930    0.9016   46.5940 H       1  ZINC001300804061    0.0400
     32 H32         3.4726   -0.0461   47.0964 H       1  ZINC001300804061    0.0400
     33 H33         4.5493   -0.6645   45.8211 H       1  ZINC001300804061    0.0900
     34 H34         0.6950    1.3568   45.3204 H       1  ZINC001300804061    0.0700
     35 H35         1.2669    1.0455   46.9767 H       1  ZINC001300804061    0.0800
     36 H36        -3.1791    5.0705   49.8739 H       1  ZINC001300804061    0.1600
     37 H37        -5.0786    4.6294   51.7335 H       1  ZINC001300804061    0.1600
     38 H38        -6.9513    1.9207   51.3880 H       1  ZINC001300804061    0.0900
     39 H39        -5.6797    0.8480   52.0209 H       1  ZINC001300804061    0.0800
     40 H40        -6.0375    2.3857   52.8430 H       1  ZINC001300804061    0.0900
     41 H41        -0.3628    5.1168   48.7293 H       1  ZINC001300804061    0.1100
     42 H42        -1.1849    4.3241   50.0947 H       1  ZINC001300804061    0.1000
     43 H43         0.0682    2.4618   51.3776 H       1  ZINC001300804061    0.0700
     44 H44        -0.1099    1.6376   49.8137 H       1  ZINC001300804061    0.0800
     45 H45         1.6468    0.5065   50.9995 H       1  ZINC001300804061    0.0800
     46 H46         2.4271    1.4773   49.7305 H       1  ZINC001300804061    0.0800
     47 H47         2.0985    2.3422   52.6397 H       1  ZINC001300804061    0.0800
     48 H48         3.5963    1.6889   51.9282 H       1  ZINC001300804061    0.1100
     49 H49         1.6138    5.5263   50.1329 H       1  ZINC001300804061    0.1000
     50 H50         0.8774    4.7074   51.5342 H       1  ZINC001300804061    0.0900
     51 H51        -0.0427    3.5680   44.7010 H       1  ZINC001300804061    0.0600
     52 H52        -0.0125    4.8808   45.9025 H       1  ZINC001300804061    0.0800
     53 H53         1.8538    5.0994   44.2750 H       1  ZINC001300804061    0.0800
     54 H54         2.4620    4.8133   45.9239 H       1  ZINC001300804061    0.0800
     55 H55         4.6032    3.9038   45.0630 H       1  ZINC001300804061    0.0500
     56 H56         4.6011    2.5973   43.8543 H       1  ZINC001300804061    0.0600
     57 H57         4.0557    4.2298   43.4010 H       1  ZINC001300804061    0.0600
@<TRIPOS>BOND
     1     1     2    1
     2     1    31    1
     3     1    32    1
     4     1    33    1
     5     2     3    1
     6     3     4    1
     7     3    28    1
     8     3     5    1
     9     5     6    1
    10     5    34    1
    11     5    35    1
    12     6     7    1
    13     6    26    1
    14     7    17    1
    15     7     8    2
    16     8     9    1
    17     9    10    2
    18    10    11    1
    19    10    17    1
    20    11    16    1
    21    11    12    2
    22    12    13    1
    23    12    36    1
    24    13    14    2
    25    13    37    1
    26    14    15    1
    27    14    16    1
    28    15    38    1
    29    15    39    1
    30    15    40    1
    31    17    18    1
    32    18    19    1
    33    18    41    1
    34    18    42    1
    35    19    20    1
    36    19    25    1
    37    19    21    1
    38    21    22    1
    39    21    43    1
    40    21    44    1
    41    22    23    1
    42    22    45    1
    43    22    46    1
    44    23    24    1
    45    23    47    1
    46    23    48    1
    47    24    25    1
    48    25    49    1
    49    25    50    1
    50    26    27    1
    51    26    51    1
    52    26    52    1
    53    27    28    1
    54    27    53    1
    55    27    54    1
    56    28    29    1
    57    28    30    1
    58    30    55    1
    59    30    56    1
    60    30    57    1
@<TRIPOS>SUBSTRUCTURE
     1 ZINC001300804061        1 TEMP              0 ****  ****    0 ROOT


##########                                Name:    ZINC000948289723
##########                DOCK_Rotatable_Bonds:                   6
##########                         Heavy_Atoms:                  24
##########                    Molecular_Weight:             331.415
##########                DOCK_Rotatable_Bonds:                   6
##########                       Formal_Charge:           0.0599999
##########                     HBond_Acceptors:                   6
##########                        HBond_Donors:                   1
##########                         Heavy_Atoms:                  24
##########                          Grid_Score:          -30.071730
##########                     Grid_vdw_energy:          -27.409140
##########                      Grid_es_energy:           -2.662590
##########           Internal_energy_repulsive:            7.912526

@<TRIPOS>MOLECULE
ZINC000948289723
 49 52 1 0 0
SMALL
USER_CHARGES


@<TRIPOS>ATOM
      1 C1          0.6733    3.2064   45.7414 C.3     1  ZINC000948289723   -0.1400
      2 C2          0.5293    3.2912   47.2623 C.3     1  ZINC000948289723   -0.1100
      3 C3         -0.7796    3.9553   47.7211 C.3     1  ZINC000948289723   -0.1100
      4 C4         -0.8409    2.8889   48.8274 C.3     1  ZINC000948289723   -0.1400
      5 C5         -2.2286    2.3564   49.0762 C.2     1  ZINC000948289723    0.5400
      6 O6         -2.7689    1.6591   48.2439 O.2     1  ZINC000948289723   -0.5300
      7 N7         -2.8692    2.6549   50.2238 N.am    1  ZINC000948289723   -0.6200
      8 C8         -2.3340    3.4851   51.3128 C.3     1  ZINC000948289723    0.1100
      9 C9         -3.4246    3.5718   52.4012 C.3     1  ZINC000948289723   -0.1100
     10 H10        -3.2529    2.8282   53.1795 H       1  ZINC000948289723    0.1000
     11 C11        -3.4798    4.9780   53.0016 C.3     1  ZINC000948289723   -0.1400
     12 C12        -4.7249    3.2546   51.6163 C.3     1  ZINC000948289723    0.1400
     13 H13        -5.1021    4.1429   51.1098 H       1  ZINC000948289723    0.1200
     14 N14        -5.7452    2.6838   52.4992 N.am    1  ZINC000948289723   -0.7100
     15 C15        -6.9288    2.2858   51.9922 C.2     1  ZINC000948289723    0.6100
     16 O16        -7.1493    2.3990   50.8020 O.2     1  ZINC000948289723   -0.5000
     17 C17        -7.9569    1.7127   52.8815 C.2     1  ZINC000948289723   -0.0900
     18 C18        -8.6548    0.5515   52.6904 C.2     1  ZINC000948289723   -0.1400
     19 C19        -9.4972    0.4734   53.8217 C.2     1  ZINC000948289723    0.0500
     20 C20       -10.4912   -0.6163   54.1311 C.3     1  ZINC000948289723   -0.0900
     21 C21       -11.9210   -0.4346   53.6175 C.3     1  ZINC000948289723   -0.1600
     22 C22       -10.9976   -1.4634   52.9618 C.3     1  ZINC000948289723   -0.1600
     23 N23        -9.2469    1.5259   54.5448 N.2     1  ZINC000948289723   -0.3300
     24 O24        -8.3939    2.2237   54.0479 O.3     1  ZINC000948289723    0.1200
     25 C25        -4.2250    2.2084   50.5922 C.3     1  ZINC000948289723    0.0900
     26 C26         0.0053    1.9960   47.9047 C.3     1  ZINC000948289723   -0.1200
     27 H27        -0.2982    2.9922   45.2959 H       1  ZINC000948289723    0.0600
     28 H28         1.0474    4.1557   45.3584 H       1  ZINC000948289723    0.0600
     29 H29         1.3732    2.4106   45.4866 H       1  ZINC000948289723    0.0600
     30 H30         1.4181    3.6919   47.7500 H       1  ZINC000948289723    0.0900
     31 H31        -0.6459    4.9691   48.0987 H       1  ZINC000948289723    0.0700
     32 H32        -1.5875    3.8767   46.9935 H       1  ZINC000948289723    0.1000
     33 H33        -0.3290    3.1810   49.7443 H       1  ZINC000948289723    0.1100
     34 H34        -1.4361    3.0237   51.7238 H       1  ZINC000948289723    0.0800
     35 H35        -2.1029    4.4827   50.9393 H       1  ZINC000948289723    0.0800
     36 H36        -3.6818    5.7023   52.2125 H       1  ZINC000948289723    0.0600
     37 H37        -4.2726    5.0235   53.7483 H       1  ZINC000948289723    0.0600
     38 H38        -2.5241    5.2101   53.4717 H       1  ZINC000948289723    0.0700
     39 H39        -5.5688    2.5924   53.4486 H       1  ZINC000948289723    0.4100
     40 H40        -8.5796   -0.1430   51.8668 H       1  ZINC000948289723    0.1800
     41 H41       -10.3607   -1.1125   55.0927 H       1  ZINC000948289723    0.1300
     42 H42       -12.7315   -0.8114   54.2414 H       1  ZINC000948289723    0.1100
     43 H43       -12.1426    0.4729   53.0560 H       1  ZINC000948289723    0.1000
     44 H44       -10.6116   -1.2325   51.9690 H       1  ZINC000948289723    0.1000
     45 H45       -11.2005   -2.5168   53.1544 H       1  ZINC000948289723    0.1100
     46 H46        -4.8744    2.1942   49.7168 H       1  ZINC000948289723    0.0900
     47 H47        -4.1820    1.2201   51.0498 H       1  ZINC000948289723    0.0800
     48 H48        -0.5880    1.3817   47.2274 H       1  ZINC000948289723    0.0900
     49 H49         0.7726    1.4279   48.4305 H       1  ZINC000948289723    0.0800
@<TRIPOS>BOND
     1     1     2    1
     2     1    27    1
     3     1    28    1
     4     1    29    1
     5     2    26    1
     6     2     3    1
     7     2    30    1
     8     3     4    1
     9     3    31    1
    10     3    32    1
    11     4     5    1
    12     4    26    1
    13     4    33    1
    14     5     6    2
    15     5     7   am
    16     7    25    1
    17     7     8    1
    18     8     9    1
    19     8    34    1
    20     8    35    1
    21     9    10    1
    22     9    11    1
    23     9    12    1
    24    11    36    1
    25    11    37    1
    26    11    38    1
    27    12    13    1
    28    12    14    1
    29    12    25    1
    30    14    15   am
    31    14    39    1
    32    15    16    2
    33    15    17    1
    34    17    24    1
    35    17    18    2
    36    18    19    1
    37    18    40    1
    38    19    20    1
    39    19    23    2
    40    20    22    1
    41    20    21    1
    42    20    41    1
    43    21    22    1
    44    21    42    1
    45    21    43    1
    46    22    44    1
    47    22    45    1
    48    23    24    1
    49    25    46    1
    50    25    47    1
    51    26    48    1
    52    26    49    1
@<TRIPOS>SUBSTRUCTURE
     1 ZINC000948289723        1 TEMP              0 ****  ****    0 ROOT


##########                                Name:    ZINC000484424341
##########                DOCK_Rotatable_Bonds:                   7
##########                         Heavy_Atoms:                  26
##########                    Molecular_Weight:             359.425
##########                DOCK_Rotatable_Bonds:                   7
##########                       Formal_Charge:          -0.0100009
##########                     HBond_Acceptors:                   7
##########                        HBond_Donors:                   1
##########                         Heavy_Atoms:                  26
##########                          Grid_Score:          -30.064150
##########                     Grid_vdw_energy:          -28.201923
##########                      Grid_es_energy:           -1.862227
##########           Internal_energy_repulsive:            8.409313

@<TRIPOS>MOLECULE
ZINC000484424341
 51 53 1 0 0
SMALL
USER_CHARGES


@<TRIPOS>ATOM
      1 C1         -6.9040   -0.3488   51.6769 C.3     1  ZINC000484424341    0.0300
      2 O2         -6.2086    0.7079   51.0123 O.3     1  ZINC000484424341   -0.3800
      3 C3         -6.3252    1.9771   51.6586 C.3     1  ZINC000484424341    0.1300
      4 H4         -6.3981    1.8307   52.7362 H       1  ZINC000484424341    0.0700
      5 C5         -7.5803    2.6925   51.1549 C.3     1  ZINC000484424341   -0.1700
      6 C6         -5.1109    2.8132   51.3463 C.ar    1  ZINC000484424341   -0.0700
      7 C7         -4.6813    3.7704   52.2468 C.ar    1  ZINC000484424341   -0.1000
      8 C8         -3.5673    4.5399   51.9643 C.ar    1  ZINC000484424341   -0.1000
      9 C9         -2.8802    4.3545   50.7811 C.ar    1  ZINC000484424341   -0.1100
     10 C10        -3.3091    3.3934   49.8738 C.ar    1  ZINC000484424341    0.1400
     11 N11        -2.6159    3.2028   48.6757 N.am    1  ZINC000484424341   -0.6400
     12 C12        -1.4453    2.5348   48.6734 C.2     1  ZINC000484424341    0.5100
     13 O13        -0.9933    2.0987   49.7120 O.2     1  ZINC000484424341   -0.4900
     14 C14        -0.7044    2.3311   47.3927 C.2     1  ZINC000484424341    0.5200
     15 O15        -0.6586    1.2289   46.8868 O.2     1  ZINC000484424341   -0.5200
     16 N16        -0.0866    3.3714   46.7988 N.am    1  ZINC000484424341   -0.5800
     17 C17        -0.0620    4.7532   47.3002 C.3     1  ZINC000484424341    0.1100
     18 C18         0.7826    5.5844   46.3115 C.3     1  ZINC000484424341   -0.1500
     19 C19         1.6565    4.5099   45.6124 C.3     1  ZINC000484424341    0.1500
     20 H20         2.5305    4.2639   46.2157 H       1  ZINC000484424341    0.1100
     21 N21         2.0538    4.9470   44.2717 N.am    1  ZINC000484424341   -0.6100
     22 C22         1.1478    5.0103   43.1189 C.3     1  ZINC000484424341    0.1000
     23 C23         1.8588    5.9111   42.0849 C.3     1  ZINC000484424341   -0.1300
     24 C24         3.3434    5.7323   42.4788 C.3     1  ZINC000484424341   -0.1600
     25 C25         3.2937    5.3471   43.9409 C.2     1  ZINC000484424341    0.5200
     26 O26         4.2371    5.3865   44.7020 O.2     1  ZINC000484424341   -0.5200
     27 C27         0.6819    3.3107   45.5422 C.3     1  ZINC000484424341    0.0900
     28 C28        -4.4250    2.6185   50.1633 C.ar    1  ZINC000484424341   -0.1300
     29 H29        -7.9662   -0.1097   51.7269 H       1  ZINC000484424341    0.0400
     30 H30        -6.7664   -1.2782   51.1243 H       1  ZINC000484424341    0.0900
     31 H31        -6.5096   -0.4646   52.6865 H       1  ZINC000484424341    0.0400
     32 H32        -7.5073    2.8390   50.0773 H       1  ZINC000484424341    0.0700
     33 H33        -8.4585    2.0878   51.3808 H       1  ZINC000484424341    0.0600
     34 H34        -7.6691    3.6607   51.6479 H       1  ZINC000484424341    0.0700
     35 H35        -5.2171    3.9178   53.1729 H       1  ZINC000484424341    0.1300
     36 H36        -3.2348    5.2871   52.6698 H       1  ZINC000484424341    0.1300
     37 H37        -2.0106    4.9560   50.5609 H       1  ZINC000484424341    0.1300
     38 H38        -2.9772    3.5513   47.8457 H       1  ZINC000484424341    0.4200
     39 H39        -1.0765    5.1492   47.3451 H       1  ZINC000484424341    0.0800
     40 H40         0.3930    4.7803   48.2903 H       1  ZINC000484424341    0.0800
     41 H41         0.1428    6.0910   45.5890 H       1  ZINC000484424341    0.0900
     42 H42         1.4065    6.3013   46.8453 H       1  ZINC000484424341    0.0900
     43 H43         0.9917    4.0134   42.7066 H       1  ZINC000484424341    0.0800
     44 H44         0.1951    5.4515   43.4117 H       1  ZINC000484424341    0.0800
     45 H45         1.6792    5.5568   41.0698 H       1  ZINC000484424341    0.0900
     46 H46         1.5487    6.9504   42.1942 H       1  ZINC000484424341    0.0800
     47 H47         3.8023    4.9402   41.8870 H       1  ZINC000484424341    0.1100
     48 H48         3.8871    6.6683   42.3520 H       1  ZINC000484424341    0.1000
     49 H49         1.2363    2.3744   45.4773 H       1  ZINC000484424341    0.0900
     50 H50         0.0121    3.4157   44.6887 H       1  ZINC000484424341    0.0900
     51 H51        -4.7608    1.8704   49.4605 H       1  ZINC000484424341    0.1300
@<TRIPOS>BOND
     1     1     2    1
     2     1    29    1
     3     1    30    1
     4     1    31    1
     5     2     3    1
     6     3     4    1
     7     3     5    1
     8     3     6    1
     9     5    32    1
    10     5    33    1
    11     5    34    1
    12     6    28   ar
    13     6     7   ar
    14     7     8   ar
    15     7    35    1
    16     8     9   ar
    17     8    36    1
    18     9    10   ar
    19     9    37    1
    20    10    11    1
    21    10    28   ar
    22    11    12   am
    23    11    38    1
    24    12    13    2
    25    12    14    1
    26    14    15    2
    27    14    16   am
    28    16    27    1
    29    16    17    1
    30    17    18    1
    31    17    39    1
    32    17    40    1
    33    18    19    1
    34    18    41    1
    35    18    42    1
    36    19    20    1
    37    19    21    1
    38    19    27    1
    39    21    25   am
    40    21    22    1
    41    22    23    1
    42    22    43    1
    43    22    44    1
    44    23    24    1
    45    23    45    1
    46    23    46    1
    47    24    25    1
    48    24    47    1
    49    24    48    1
    50    25    26    2
    51    27    49    1
    52    27    50    1
    53    28    51    1
@<TRIPOS>SUBSTRUCTURE
     1 ZINC000484424341        1 TEMP              0 ****  ****    0 ROOT


##########                                Name:    ZINC000032503012
##########                DOCK_Rotatable_Bonds:                   8
##########                         Heavy_Atoms:                  27
##########                    Molecular_Weight:             390.503
##########                DOCK_Rotatable_Bonds:                   8
##########                       Formal_Charge:           0.0099995
##########                     HBond_Acceptors:                   7
##########                        HBond_Donors:                   2
##########                         Heavy_Atoms:                  27
##########                          Grid_Score:          -30.059740
##########                     Grid_vdw_energy:          -28.933388
##########                      Grid_es_energy:           -1.126353
##########           Internal_energy_repulsive:           42.716976

@<TRIPOS>MOLECULE
ZINC000032503012
 53 54 1 0 0
SMALL
USER_CHARGES


@<TRIPOS>ATOM
      1 C1         -7.8249    0.0358   52.1714 C.3     1  ZINC000032503012   -0.1200
      2 C2         -7.0955    1.2729   51.7145 C.ar    1  ZINC000032503012   -0.0500
      3 C3         -7.6434    2.5214   51.9427 C.ar    1  ZINC000032503012   -0.1600
      4 C4         -6.9766    3.6586   51.5247 C.ar    1  ZINC000032503012   -0.0700
      5 C5         -5.7610    3.5492   50.8778 C.ar    1  ZINC000032503012   -0.1500
      6 C6         -5.2092    2.2972   50.6476 C.ar    1  ZINC000032503012    0.1300
      7 O7         -4.0131    2.1870   50.0117 O.3     1  ZINC000032503012   -0.2800
      8 C8         -3.1743    3.3438   50.0025 C.3     1  ZINC000032503012    0.0700
      9 H9         -3.7342    4.1957   49.6165 H       1  ZINC000032503012    0.1100
     10 C10        -2.7052    3.6451   51.4273 C.3     1  ZINC000032503012   -0.1800
     11 C11        -1.9773    3.0893   49.1229 C.2     1  ZINC000032503012    0.5200
     12 O12        -2.0116    2.2057   48.2929 O.2     1  ZINC000032503012   -0.4900
     13 N13        -0.8687    3.8436   49.2586 N.am    1  ZINC000032503012   -0.6700
     14 C14         0.2427    3.6074   48.4420 C.ar    1  ZINC000032503012    0.1300
     15 C15         0.1877    3.9095   47.0878 C.ar    1  ZINC000032503012   -0.0600
     16 C16         1.2865    3.6752   46.2843 C.ar    1  ZINC000032503012   -0.1200
     17 C17         2.4400    3.1399   46.8269 C.ar    1  ZINC000032503012   -0.0300
     18 C18         2.4979    2.8375   48.1752 C.ar    1  ZINC000032503012   -0.6600
     19 S19         3.9703    2.1555   48.8618 S.o2    1  ZINC000032503012    2.7000
     20 O20         4.8224    1.8545   47.7651 O.2     1  ZINC000032503012   -0.9600
     21 O21         4.3505    3.0136   49.9287 O.2     1  ZINC000032503012   -0.9500
     22 N22         3.5641    0.7052   49.5502 N.am    1  ZINC000032503012   -1.1100
     23 C23         2.9887   -0.3610   48.7265 C.3     1  ZINC000032503012    0.1700
     24 C24         3.9894   -0.7638   47.6416 C.3     1  ZINC000032503012   -0.1900
     25 C25         2.6753   -1.5726   49.6067 C.3     1  ZINC000032503012   -0.1500
     26 C26         1.7001    0.1401   48.0711 C.3     1  ZINC000032503012   -0.1800
     27 C27         1.4051    3.0756   48.9852 C.ar    1  ZINC000032503012   -0.0400
     28 C28        -5.8772    1.1585   51.0729 C.ar    1  ZINC000032503012   -0.2100
     29 H29        -7.5188   -0.2120   53.1877 H       1  ZINC000032503012    0.0700
     30 H30        -8.8993    0.2187   52.1499 H       1  ZINC000032503012    0.0700
     31 H31        -7.5843   -0.7940   51.5070 H       1  ZINC000032503012    0.0700
     32 H32        -8.5938    2.6090   52.4479 H       1  ZINC000032503012    0.1300
     33 H33        -7.4067    4.6328   51.7037 H       1  ZINC000032503012    0.1300
     34 H34        -5.2408    4.4375   50.5512 H       1  ZINC000032503012    0.1300
     35 H35        -3.5710    3.8292   52.0635 H       1  ZINC000032503012    0.0800
     36 H36        -2.1453    2.7933   51.8132 H       1  ZINC000032503012    0.0800
     37 H37        -2.0654    4.5275   51.4202 H       1  ZINC000032503012    0.0800
     38 H38        -0.8412    4.5504   49.9225 H       1  ZINC000032503012    0.4100
     39 H39        -0.7133    4.3270   46.6632 H       1  ZINC000032503012    0.1400
     40 H40         1.2444    3.9100   45.2310 H       1  ZINC000032503012    0.1400
     41 H41         3.2977    2.9573   46.1964 H       1  ZINC000032503012    0.1500
     42 H42         3.7072    0.5615   50.4988 H       1  ZINC000032503012    0.4200
     43 H43         4.9625   -0.9501   48.0961 H       1  ZINC000032503012    0.0700
     44 H44         3.6414   -1.6692   47.1443 H       1  ZINC000032503012    0.0800
     45 H45         4.0774    0.0408   46.9116 H       1  ZINC000032503012    0.0700
     46 H46         1.9624   -1.2857   50.3795 H       1  ZINC000032503012    0.0700
     47 H47         2.2471   -2.3658   48.9938 H       1  ZINC000032503012    0.0700
     48 H48         3.5933   -1.9296   50.0735 H       1  ZINC000032503012    0.0600
     49 H49         1.9452    0.8686   47.2982 H       1  ZINC000032503012    0.0900
     50 H50         1.1697   -0.7002   47.6232 H       1  ZINC000032503012    0.0700
     51 H51         1.0676    0.6090   48.8249 H       1  ZINC000032503012    0.0600
     52 H52         1.4508    2.8392   50.0380 H       1  ZINC000032503012    0.1400
     53 H53        -5.4497    0.1827   50.8948 H       1  ZINC000032503012    0.1300
@<TRIPOS>BOND
     1     1     2    1
     2     1    29    1
     3     1    30    1
     4     1    31    1
     5     2    28   ar
     6     2     3   ar
     7     3     4   ar
     8     3    32    1
     9     4     5   ar
    10     4    33    1
    11     5     6   ar
    12     5    34    1
    13     6     7    1
    14     6    28   ar
    15     7     8    1
    16     8     9    1
    17     8    10    1
    18     8    11    1
    19    10    35    1
    20    10    36    1
    21    10    37    1
    22    11    12    2
    23    11    13   am
    24    13    14    1
    25    13    38    1
    26    14    27   ar
    27    14    15   ar
    28    15    16   ar
    29    15    39    1
    30    16    17   ar
    31    16    40    1
    32    17    18   ar
    33    17    41    1
    34    18    19    1
    35    18    27   ar
    36    19    20    2
    37    19    21    2
    38    19    22   am
    39    22    23    1
    40    22    42    1
    41    23    24    1
    42    23    25    1
    43    23    26    1
    44    24    43    1
    45    24    44    1
    46    24    45    1
    47    25    46    1
    48    25    47    1
    49    25    48    1
    50    26    49    1
    51    26    50    1
    52    26    51    1
    53    27    52    1
    54    28    53    1
@<TRIPOS>SUBSTRUCTURE
     1 ZINC000032503012        1 TEMP              0 ****  ****    0 ROOT


##########                                Name:    ZINC000770850676
##########                DOCK_Rotatable_Bonds:                  13
##########                         Heavy_Atoms:                  30
##########                    Molecular_Weight:             412.486
##########                DOCK_Rotatable_Bonds:                  13
##########                       Formal_Charge:          -0.0299994
##########                     HBond_Acceptors:                   7
##########                        HBond_Donors:                   3
##########                         Heavy_Atoms:                  30
##########                          Grid_Score:          -30.017460
##########                     Grid_vdw_energy:          -28.204659
##########                      Grid_es_energy:           -1.812801
##########           Internal_energy_repulsive:           17.286377

@<TRIPOS>MOLECULE
ZINC000770850676
 58 60 1 0 0
SMALL
USER_CHARGES


@<TRIPOS>ATOM
      1 O1        -14.9252   -0.7167   59.1628 O.2     1  ZINC000770850676   -0.5300
      2 C2        -13.9853   -1.3941   59.5213 C.2     1  ZINC000770850676    0.5100
      3 N3        -14.1395   -2.2861   60.5198 N.am    1  ZINC000770850676   -0.7000
      4 C4        -15.4409   -2.4331   61.1762 C.3     1  ZINC000770850676    0.1600
      5 H5        -15.3571   -3.1503   61.9927 H       1  ZINC000770850676    0.1000
      6 C6        -16.4704   -2.9341   60.1613 C.3     1  ZINC000770850676    0.0600
      7 O7        -15.9036   -3.9973   59.3931 O.3     1  ZINC000770850676   -0.5700
      8 C8        -15.8884   -1.0791   61.7306 C.3     1  ZINC000770850676   -0.1500
      9 C9        -16.5259   -1.2772   63.1073 C.3     1  ZINC000770850676    0.1500
     10 H10       -17.3123   -2.0288   63.0387 H       1  ZINC000770850676    0.1100
     11 O11       -15.5303   -1.7128   64.0351 O.3     1  ZINC000770850676   -0.5400
     12 C12       -17.1166    0.0263   63.5795 C.ar    1  ZINC000770850676   -0.1200
     13 C13       -16.3460    0.9088   64.3134 C.ar    1  ZINC000770850676   -0.1100
     14 C14       -16.8879    2.1044   64.7466 C.ar    1  ZINC000770850676   -0.1200
     15 C15       -18.2001    2.4179   64.4455 C.ar    1  ZINC000770850676   -0.1200
     16 C16       -18.9704    1.5359   63.7109 C.ar    1  ZINC000770850676   -0.1200
     17 C17       -18.4273    0.3421   63.2741 C.ar    1  ZINC000770850676   -0.1100
     18 C18       -12.6465   -1.2429   58.8461 C.3     1  ZINC000770850676    0.1400
     19 H19       -12.6075   -0.2956   58.3083 H       1  ZINC000770850676    0.1000
     20 C20       -12.4181   -2.4127   57.8658 C.3     1  ZINC000770850676   -0.1200
     21 C21       -10.9077   -2.7222   58.0398 C.3     1  ZINC000770850676   -0.1300
     22 C22       -10.7077   -2.4542   59.5524 C.3     1  ZINC000770850676    0.1000
     23 N23       -11.5723   -1.2934   59.8487 N.am    1  ZINC000770850676   -0.5900
     24 C24       -11.4039   -0.4284   60.8685 C.2     1  ZINC000770850676    0.6700
     25 O25       -12.1807    0.4940   61.0174 O.2     1  ZINC000770850676   -0.5600
     26 O26       -10.3748   -0.5864   61.7221 O.3     1  ZINC000770850676   -0.3600
     27 C27        -9.2032    0.2429   61.5028 C.3     1  ZINC000770850676    0.1300
     28 C28        -8.9178    1.0475   62.7446 C.ar    1  ZINC000770850676   -0.1000
     29 C29        -9.3880    2.3430   62.8520 C.ar    1  ZINC000770850676   -0.0900
     30 C30        -9.1262    3.0811   63.9912 C.ar    1  ZINC000770850676   -0.1200
     31 C31        -8.3946    2.5236   65.0231 C.ar    1  ZINC000770850676   -0.1100
     32 C32        -7.9252    1.2278   64.9161 C.ar    1  ZINC000770850676   -0.1200
     33 C33        -8.1907    0.4882   63.7788 C.ar    1  ZINC000770850676   -0.0900
     34 H34       -13.3888   -2.8308   60.8039 H       1  ZINC000770850676    0.4000
     35 H35       -17.3531   -3.2967   60.6879 H       1  ZINC000770850676    0.0500
     36 H36       -16.7535   -2.1171   59.4974 H       1  ZINC000770850676    0.0500
     37 H37       -15.1239   -3.7409   58.8817 H       1  ZINC000770850676    0.3800
     38 H38       -15.0246   -0.4204   61.8216 H       1  ZINC000770850676    0.0800
     39 H39       -16.6165   -0.6320   61.0539 H       1  ZINC000770850676    0.0900
     40 H40       -15.1065   -2.5479   63.7941 H       1  ZINC000770850676    0.3700
     41 H41       -15.3208    0.6638   64.5485 H       1  ZINC000770850676    0.1200
     42 H42       -16.2860    2.7935   65.3205 H       1  ZINC000770850676    0.1200
     43 H43       -18.6237    3.3517   64.7846 H       1  ZINC000770850676    0.1200
     44 H44       -19.9957    1.7806   63.4761 H       1  ZINC000770850676    0.1200
     45 H45       -19.0291   -0.3470   62.7001 H       1  ZINC000770850676    0.1200
     46 H46       -13.0232   -3.2748   58.1464 H       1  ZINC000770850676    0.0800
     47 H47       -12.6334   -2.1058   56.8422 H       1  ZINC000770850676    0.1000
     48 H48       -10.6912   -3.7622   57.7954 H       1  ZINC000770850676    0.0900
     49 H49       -10.2987   -2.0464   57.4394 H       1  ZINC000770850676    0.0800
     50 H50       -11.0202   -3.3203   60.1358 H       1  ZINC000770850676    0.0700
     51 H51        -9.6654   -2.2120   59.7602 H       1  ZINC000770850676    0.0900
     52 H52        -8.3463   -0.3916   61.2761 H       1  ZINC000770850676    0.0800
     53 H53        -9.3870    0.9177   60.6668 H       1  ZINC000770850676    0.0800
     54 H54        -9.9596    2.7786   62.0458 H       1  ZINC000770850676    0.1200
     55 H55        -9.4930    4.0935   64.0748 H       1  ZINC000770850676    0.1300
     56 H56        -8.1895    3.1006   65.9128 H       1  ZINC000770850676    0.1300
     57 H57        -7.3533    0.7924   65.7221 H       1  ZINC000770850676    0.1300
     58 H58        -7.8239   -0.5241   63.6951 H       1  ZINC000770850676    0.1200
@<TRIPOS>BOND
     1     1     2    2
     2     2     3   am
     3     2    18    1
     4     3     4    1
     5     3    34    1
     6     4     5    1
     7     4     6    1
     8     4     8    1
     9     6     7    1
    10     6    35    1
    11     6    36    1
    12     7    37    1
    13     8     9    1
    14     8    38    1
    15     8    39    1
    16     9    10    1
    17     9    11    1
    18     9    12    1
    19    11    40    1
    20    12    17   ar
    21    12    13   ar
    22    13    14   ar
    23    13    41    1
    24    14    15   ar
    25    14    42    1
    26    15    16   ar
    27    15    43    1
    28    16    17   ar
    29    16    44    1
    30    17    45    1
    31    18    19    1
    32    18    23    1
    33    18    20    1
    34    20    21    1
    35    20    46    1
    36    20    47    1
    37    21    22    1
    38    21    48    1
    39    21    49    1
    40    22    23    1
    41    22    50    1
    42    22    51    1
    43    23    24   am
    44    24    25    2
    45    24    26    1
    46    26    27    1
    47    27    28    1
    48    27    52    1
    49    27    53    1
    50    28    33   ar
    51    28    29   ar
    52    29    30   ar
    53    29    54    1
    54    30    31   ar
    55    30    55    1
    56    31    32   ar
    57    31    56    1
    58    32    33   ar
    59    32    57    1
    60    33    58    1
@<TRIPOS>SUBSTRUCTURE
     1 ZINC000770850676        1 TEMP              0 ****  ****    0 ROOT


##########                                Name:    ZINC001207290212
##########                DOCK_Rotatable_Bonds:                   8
##########                         Heavy_Atoms:                  23
##########                    Molecular_Weight:             344.435
##########                DOCK_Rotatable_Bonds:                   8
##########                       Formal_Charge:               -0.03
##########                     HBond_Acceptors:                   9
##########                        HBond_Donors:                   2
##########                         Heavy_Atoms:                  23
##########                          Grid_Score:          -30.017242
##########                     Grid_vdw_energy:          -29.465200
##########                      Grid_es_energy:           -0.552042
##########           Internal_energy_repulsive:            6.046381

@<TRIPOS>MOLECULE
ZINC001207290212
 47 48 1 0 0
SMALL
USER_CHARGES


@<TRIPOS>ATOM
      1 C1         -0.6036    4.2545   59.1136 C.3     1  ZINC001207290212   -0.1500
      2 C2         -1.3598    3.1806   58.3287 C.3     1  ZINC001207290212   -0.6300
      3 S3         -0.3321    2.6031   56.9501 S.o2    1  ZINC001207290212    2.6100
      4 O4          0.9300    2.1531   57.4232 O.2     1  ZINC001207290212   -0.9500
      5 O5         -1.1006    1.8154   56.0510 O.2     1  ZINC001207290212   -0.9500
      6 N6          0.0189    3.9758   56.0929 N.am    1  ZINC001207290212   -1.1100
      7 C7          0.8471    3.8948   54.8872 C.3     1  ZINC001207290212    0.0900
      8 C8          0.0484    4.3600   53.6969 C.2     1  ZINC001207290212    0.5100
      9 O9          0.3424    5.3945   53.1361 O.2     1  ZINC001207290212   -0.5300
     10 N10        -0.9926    3.6266   53.2556 N.am    1  ZINC001207290212   -0.7200
     11 C11        -1.7679    4.0779   52.0974 C.3     1  ZINC001207290212    0.1400
     12 H12        -1.6069    5.1423   51.9266 H       1  ZINC001207290212    0.1000
     13 C13        -3.2657    3.7919   52.3125 C.3     1  ZINC001207290212    0.0200
     14 N14        -3.6834    2.8471   51.2539 N.3     1  ZINC001207290212   -0.5100
     15 C15        -5.0673    3.1051   50.8341 C.3     1  ZINC001207290212    0.1300
     16 C16        -5.9809    2.0831   51.4599 C.2     1  ZINC001207290212    0.0000
     17 C17        -7.0335    2.3412   52.2536 C.2     1  ZINC001207290212   -0.0700
     18 O18        -7.5737    1.1547   52.5941 O.3     1  ZINC001207290212   -0.2000
     19 C19        -6.8490    0.1924   52.0078 C.2     1  ZINC001207290212    0.1900
     20 C20        -7.1024   -1.2888   52.1201 C.3     1  ZINC001207290212   -0.0600
     21 N21        -5.8930    0.7485   51.3197 N.2     1  ZINC001207290212   -0.4700
     22 C22        -2.7376    3.0566   50.1280 C.3     1  ZINC001207290212    0.0400
     23 C23        -1.3762    3.2674   50.8405 C.3     1  ZINC001207290212   -0.1000
     24 H24        -0.9358    2.3107   51.1216 H       1  ZINC001207290212    0.0900
     25 C25        -0.4175    4.0625   49.9520 C.3     1  ZINC001207290212   -0.1400
     26 H26         0.3239    3.8345   59.5029 H       1  ZINC001207290212    0.0700
     27 H27        -0.3748    5.0923   58.4551 H       1  ZINC001207290212    0.0700
     28 H28        -1.2211    4.6015   59.9420 H       1  ZINC001207290212    0.0800
     29 H29        -1.5885    2.3427   58.9873 H       1  ZINC001207290212    0.1300
     30 H30        -2.2873    3.6006   57.9395 H       1  ZINC001207290212    0.1300
     31 H31        -0.3240    4.8335   56.3891 H       1  ZINC001207290212    0.4300
     32 H32         1.7250    4.5297   55.0062 H       1  ZINC001207290212    0.1000
     33 H33         1.1630    2.8632   54.7320 H       1  ZINC001207290212    0.1100
     34 H34        -1.2285    2.7999   53.7049 H       1  ZINC001207290212    0.4100
     35 H35        -3.4208    3.3426   53.2935 H       1  ZINC001207290212    0.0800
     36 H36        -3.8361    4.7171   52.2305 H       1  ZINC001207290212    0.0500
     37 H37        -5.3643    4.1033   51.1556 H       1  ZINC001207290212    0.0600
     38 H38        -5.1361    3.0376   49.7483 H       1  ZINC001207290212    0.1000
     39 H39        -7.3811    3.3164   52.5613 H       1  ZINC001207290212    0.2100
     40 H40        -7.9710   -1.4618   52.7556 H       1  ZINC001207290212    0.0900
     41 H41        -7.2897   -1.7017   51.1288 H       1  ZINC001207290212    0.1000
     42 H42        -6.2299   -1.7747   52.5571 H       1  ZINC001207290212    0.1000
     43 H43        -2.7037    2.1770   49.4853 H       1  ZINC001207290212    0.0900
     44 H44        -3.0118    3.9425   49.5551 H       1  ZINC001207290212    0.0500
     45 H45        -0.8636    5.0265   49.7076 H       1  ZINC001207290212    0.0600
     46 H46         0.5220    4.2208   50.4817 H       1  ZINC001207290212    0.0600
     47 H47        -0.2276    3.5066   49.0339 H       1  ZINC001207290212    0.0600
@<TRIPOS>BOND
     1     1     2    1
     2     1    26    1
     3     1    27    1
     4     1    28    1
     5     2     3    1
     6     2    29    1
     7     2    30    1
     8     3     4    2
     9     3     5    2
    10     3     6   am
    11     6     7    1
    12     6    31    1
    13     7     8    1
    14     7    32    1
    15     7    33    1
    16     8     9    2
    17     8    10   am
    18    10    11    1
    19    10    34    1
    20    11    12    1
    21    11    23    1
    22    11    13    1
    23    13    14    1
    24    13    35    1
    25    13    36    1
    26    14    15    1
    27    14    22    1
    28    15    16    1
    29    15    37    1
    30    15    38    1
    31    16    21    1
    32    16    17    2
    33    17    18    1
    34    17    39    1
    35    18    19    1
    36    19    20    1
    37    19    21    2
    38    20    40    1
    39    20    41    1
    40    20    42    1
    41    22    23    1
    42    22    43    1
    43    22    44    1
    44    23    24    1
    45    23    25    1
    46    25    45    1
    47    25    46    1
    48    25    47    1
@<TRIPOS>SUBSTRUCTURE
     1 ZINC001207290212        1 TEMP              0 ****  ****    0 ROOT


##########                                Name:    ZINC000498646479
##########                DOCK_Rotatable_Bonds:                   7
##########                         Heavy_Atoms:                  29
##########                    Molecular_Weight:              407.58
##########                DOCK_Rotatable_Bonds:                   7
##########                       Formal_Charge:          -0.0199997
##########                     HBond_Acceptors:                   5
##########                        HBond_Donors:                   0
##########                         Heavy_Atoms:                  29
##########                          Grid_Score:          -30.013445
##########                     Grid_vdw_energy:          -30.130392
##########                      Grid_es_energy:            0.116948
##########           Internal_energy_repulsive:           27.034691

@<TRIPOS>MOLECULE
ZINC000498646479
 58 61 1 0 0
SMALL
USER_CHARGES


@<TRIPOS>ATOM
      1 C1        -13.3232   -2.0867   55.1782 C.3     1  ZINC000498646479   -0.1500
      2 C2        -13.4173   -0.6732   54.6002 C.3     1  ZINC000498646479   -0.0600
      3 C3        -12.1779   -0.3758   53.7961 C.2     1  ZINC000498646479   -0.1700
      4 C4        -12.1194    0.4508   52.7509 C.2     1  ZINC000498646479   -0.1400
      5 C5        -10.8690    0.5670   52.1685 C.2     1  ZINC000498646479   -0.1300
      6 C6         -9.9121   -0.1652   52.7408 C.2     1  ZINC000498646479   -0.1900
      7 C7         -8.4727   -0.2133   52.2973 C.3     1  ZINC000498646479    0.1300
      8 N8         -8.0169    1.1433   51.9656 N.3     1  ZINC000498646479   -0.5300
      9 C9         -6.7519    1.1059   51.2196 C.3     1  ZINC000498646479    0.0400
     10 C10        -6.4051    2.5185   50.7374 C.3     1  ZINC000498646479    0.1200
     11 N11        -6.4171    3.4239   51.8966 N.am    1  ZINC000498646479   -0.6100
     12 C12        -5.3733    4.2382   52.1490 C.2     1  ZINC000498646479    0.5200
     13 O13        -5.4000    4.9784   53.1094 O.2     1  ZINC000498646479   -0.5400
     14 C14        -4.1729    4.2290   51.2380 C.3     1  ZINC000498646479   -0.1000
     15 H15        -4.5000    4.0921   50.2073 H       1  ZINC000498646479    0.0900
     16 C16        -3.4269    5.5589   51.3639 C.3     1  ZINC000498646479   -0.1500
     17 C17        -3.2410    3.0820   51.6339 C.3     1  ZINC000498646479   -0.0600
     18 C18        -1.8950    3.2822   50.9864 C.ar    1  ZINC000498646479   -0.1200
     19 C19        -1.6897    2.9397   49.6377 C.ar    1  ZINC000498646479   -0.0200
     20 C20        -2.7097    2.4035   48.8386 C.ar    1  ZINC000498646479   -0.1200
     21 C21        -2.4491    2.0921   47.5384 C.ar    1  ZINC000498646479   -0.1000
     22 C22        -1.1841    2.2974   46.9902 C.ar    1  ZINC000498646479   -0.1200
     23 C23        -0.1701    2.8160   47.7365 C.ar    1  ZINC000498646479   -0.0900
     24 C24        -0.4012    3.1497   49.0805 C.ar    1  ZINC000498646479   -0.1100
     25 C25         0.6048    3.6880   49.8986 C.ar    1  ZINC000498646479    0.1400
     26 N26         0.3410    3.9849   51.1497 N.ar    1  ZINC000498646479   -0.4800
     27 C27        -0.8544    3.8037   51.6937 C.ar    1  ZINC000498646479    0.0800
     28 C28        -7.5985    3.4172   52.7727 C.3     1  ZINC000498646479    0.1100
     29 C29        -7.8983    1.9692   53.1745 C.3     1  ZINC000498646479    0.0400
     30 S30       -10.5856   -1.0596   54.0973 S.3     1  ZINC000498646479    0.1300
     31 H31       -14.2196   -2.3019   55.7598 H       1  ZINC000498646479    0.0600
     32 H32       -13.2364   -2.8069   54.3645 H       1  ZINC000498646479    0.0600
     33 H33       -12.4466   -2.1585   55.8220 H       1  ZINC000498646479    0.0600
     34 H34       -14.2939   -0.6015   53.9564 H       1  ZINC000498646479    0.0800
     35 H35       -13.5041    0.0469   55.4138 H       1  ZINC000498646479    0.0700
     36 H36       -12.9822    0.9883   52.3863 H       1  ZINC000498646479    0.1400
     37 H37       -10.6825    1.2021   51.3151 H       1  ZINC000498646479    0.1300
     38 H38        -7.8579   -0.6165   53.1019 H       1  ZINC000498646479    0.0900
     39 H39        -8.3846   -0.8513   51.4179 H       1  ZINC000498646479    0.0500
     40 H40        -5.9575    0.7380   51.8688 H       1  ZINC000498646479    0.0400
     41 H41        -6.8560    0.4436   50.3601 H       1  ZINC000498646479    0.1000
     42 H42        -5.4141    2.5176   50.2838 H       1  ZINC000498646479    0.1000
     43 H43        -7.1447    2.8483   50.0078 H       1  ZINC000498646479    0.0800
     44 H44        -2.6082    5.5857   50.6447 H       1  ZINC000498646479    0.0700
     45 H45        -4.1138    6.3812   51.1633 H       1  ZINC000498646479    0.0600
     46 H46        -3.0273    5.6573   52.3731 H       1  ZINC000498646479    0.0700
     47 H47        -3.1241    3.0663   52.7176 H       1  ZINC000498646479    0.0900
     48 H48        -3.6674    2.1359   51.3007 H       1  ZINC000498646479    0.0800
     49 H49        -3.6943    2.2386   49.2508 H       1  ZINC000498646479    0.1400
     50 H50        -3.2345    1.6792   46.9228 H       1  ZINC000498646479    0.1300
     51 H51        -1.0052    2.0407   45.9566 H       1  ZINC000498646479    0.1300
     52 H52         0.8047    2.9694   47.2979 H       1  ZINC000498646479    0.1300
     53 H53         1.5940    3.8571   49.4994 H       1  ZINC000498646479    0.1600
     54 H54        -1.0050    4.0693   52.7297 H       1  ZINC000498646479    0.1500
     55 H55        -7.3964    4.0104   53.6644 H       1  ZINC000498646479    0.0900
     56 H56        -8.4527    3.8333   52.2385 H       1  ZINC000498646479    0.0800
     57 H57        -8.8337    1.9330   53.7330 H       1  ZINC000498646479    0.0900
     58 H58        -7.0879    1.5892   53.7966 H       1  ZINC000498646479    0.0400
@<TRIPOS>BOND
     1     1     2    1
     2     1    31    1
     3     1    32    1
     4     1    33    1
     5     2     3    1
     6     2    34    1
     7     2    35    1
     8     3    30    1
     9     3     4    2
    10     4     5    1
    11     4    36    1
    12     5     6    2
    13     5    37    1
    14     6     7    1
    15     6    30    1
    16     7     8    1
    17     7    38    1
    18     7    39    1
    19     8    29    1
    20     8     9    1
    21     9    10    1
    22     9    40    1
    23     9    41    1
    24    10    11    1
    25    10    42    1
    26    10    43    1
    27    11    12   am
    28    11    28    1
    29    12    13    2
    30    12    14    1
    31    14    15    1
    32    14    16    1
    33    14    17    1
    34    16    44    1
    35    16    45    1
    36    16    46    1
    37    17    18    1
    38    17    47    1
    39    17    48    1
    40    18    27   ar
    41    18    19   ar
    42    19    24   ar
    43    19    20   ar
    44    20    21   ar
    45    20    49    1
    46    21    22   ar
    47    21    50    1
    48    22    23   ar
    49    22    51    1
    50    23    24   ar
    51    23    52    1
    52    24    25   ar
    53    25    26   ar
    54    25    53    1
    55    26    27   ar
    56    27    54    1
    57    28    29    1
    58    28    55    1
    59    28    56    1
    60    29    57    1
    61    29    58    1
@<TRIPOS>SUBSTRUCTURE
     1 ZINC000498646479        1 TEMP              0 ****  ****    0 ROOT


##########                                Name:    ZINC001015666108
##########                DOCK_Rotatable_Bonds:                   7
##########                         Heavy_Atoms:                  25
##########                    Molecular_Weight:             346.429
##########                DOCK_Rotatable_Bonds:                   7
##########                       Formal_Charge:          -0.0199997
##########                     HBond_Acceptors:                   7
##########                        HBond_Donors:                   1
##########                         Heavy_Atoms:                  25
##########                          Grid_Score:          -29.990463
##########                     Grid_vdw_energy:          -30.944399
##########                      Grid_es_energy:            0.953936
##########           Internal_energy_repulsive:           14.973482

@<TRIPOS>MOLECULE
ZINC001015666108
 51 53 1 0 0
SMALL
USER_CHARGES


@<TRIPOS>ATOM
      1 C1          2.7397   -1.1746   49.6551 C.3     1  ZINC001015666108   -0.1400
      2 C2          2.0512   -0.3320   48.5794 C.3     1  ZINC001015666108   -0.0700
      3 C3          2.9389   -0.2452   47.3648 C.2     1  ZINC001015666108   -0.0700
      4 C4          2.7387    0.5362   46.2631 C.2     1  ZINC001015666108   -0.0900
      5 C5          1.6111    1.4488   46.0473 C.2     1  ZINC001015666108    0.6100
      6 O6          1.7008    2.3434   45.2271 O.2     1  ZINC001015666108   -0.5100
      7 N7          0.4756    1.2967   46.7571 N.am    1  ZINC001015666108   -0.7200
      8 C8         -0.6514    2.2072   46.5403 C.3     1  ZINC001015666108    0.1400
      9 H9         -0.7239    2.4742   45.4860 H       1  ZINC001015666108    0.1100
     10 C10        -1.9682    1.5548   47.0203 C.3     1  ZINC001015666108   -0.1300
     11 C11        -2.1471    2.1417   48.4429 C.3     1  ZINC001015666108    0.0300
     12 N12        -1.6685    3.5401   48.2965 N.3     1  ZINC001015666108   -0.5100
     13 C13        -1.3085    4.1127   49.6005 C.3     1  ZINC001015666108    0.1700
     14 H14        -0.3306    3.7391   49.9039 H       1  ZINC001015666108    0.0900
     15 C15        -1.2604    5.6381   49.4920 C.3     1  ZINC001015666108   -0.1500
     16 C16        -2.3387    3.7142   50.6257 C.2     1  ZINC001015666108    0.1900
     17 N17        -3.6412    3.7547   50.4806 N.2     1  ZINC001015666108   -0.4800
     18 C18        -4.1491    3.3099   51.6439 C.2     1  ZINC001015666108    0.1800
     19 C19        -5.6106    3.1658   51.9819 C.3     1  ZINC001015666108    0.0000
     20 C20        -6.2984    4.5272   51.8625 C.3     1  ZINC001015666108   -0.1500
     21 C21        -6.2632    2.1779   51.0130 C.3     1  ZINC001015666108   -0.1500
     22 N22        -3.1481    3.0268   52.4225 N.2     1  ZINC001015666108   -0.3800
     23 O23        -2.0990    3.2465   51.8545 O.3     1  ZINC001015666108    0.1000
     24 C24        -0.4894    3.4729   47.4023 C.3     1  ZINC001015666108    0.0300
     25 O25         3.7598    0.3217   45.4079 O.3     1  ZINC001015666108   -0.1700
     26 C26         4.6023   -0.5747   45.9374 C.2     1  ZINC001015666108    0.0000
     27 C27         4.1350   -0.9474   47.1493 C.2     1  ZINC001015666108   -0.2200
     28 H28         2.0975   -1.2374   50.5337 H       1  ZINC001015666108    0.0600
     29 H29         2.9252   -2.1766   49.2683 H       1  ZINC001015666108    0.0600
     30 H30         3.6867   -0.7100   49.9297 H       1  ZINC001015666108    0.0500
     31 H31         1.1041   -0.7967   48.3048 H       1  ZINC001015666108    0.0900
     32 H32         1.8656    0.6700   48.9663 H       1  ZINC001015666108    0.0700
     33 H33         0.4046    0.5844   47.4117 H       1  ZINC001015666108    0.4000
     34 H34        -2.7989    1.8440   46.3764 H       1  ZINC001015666108    0.0900
     35 H35        -1.8691    0.4701   47.0601 H       1  ZINC001015666108    0.0800
     36 H36        -3.1964    2.1232   48.7375 H       1  ZINC001015666108    0.0800
     37 H37        -1.5347    1.5989   49.1628 H       1  ZINC001015666108    0.0500
     38 H38        -2.2384    6.0117   49.1886 H       1  ZINC001015666108    0.0800
     39 H39        -0.9934    6.0629   50.4596 H       1  ZINC001015666108    0.0700
     40 H40        -0.5153    5.9263   48.7505 H       1  ZINC001015666108    0.0800
     41 H41        -5.7127    2.7955   53.0020 H       1  ZINC001015666108    0.1000
     42 H42        -6.1961    4.8977   50.8425 H       1  ZINC001015666108    0.0600
     43 H43        -7.3554    4.4231   52.1070 H       1  ZINC001015666108    0.0700
     44 H44        -5.8334    5.2311   52.5528 H       1  ZINC001015666108    0.0600
     45 H45        -6.1610    2.5483   49.9929 H       1  ZINC001015666108    0.0600
     46 H46        -5.7732    1.2080   51.0981 H       1  ZINC001015666108    0.0600
     47 H47        -7.3203    2.0737   51.2575 H       1  ZINC001015666108    0.0700
     48 H48         0.4226    3.4041   47.9951 H       1  ZINC001015666108    0.0600
     49 H49        -0.4557    4.3568   46.7654 H       1  ZINC001015666108    0.1000
     50 H50         5.5081   -0.9369   45.4739 H       1  ZINC001015666108    0.2100
     51 H51         4.5925   -1.6571   47.8228 H       1  ZINC001015666108    0.1600
@<TRIPOS>BOND
     1     1     2    1
     2     1    28    1
     3     1    29    1
     4     1    30    1
     5     2     3    1
     6     2    31    1
     7     2    32    1
     8     3    27    1
     9     3     4    2
    10     4     5    1
    11     4    25    1
    12     5     6    2
    13     5     7   am
    14     7     8    1
    15     7    33    1
    16     8     9    1
    17     8    24    1
    18     8    10    1
    19    10    11    1
    20    10    34    1
    21    10    35    1
    22    11    12    1
    23    11    36    1
    24    11    37    1
    25    12    13    1
    26    12    24    1
    27    13    14    1
    28    13    15    1
    29    13    16    1
    30    15    38    1
    31    15    39    1
    32    15    40    1
    33    16    23    1
    34    16    17    2
    35    17    18    1
    36    18    19    1
    37    18    22    2
    38    19    20    1
    39    19    21    1
    40    19    41    1
    41    20    42    1
    42    20    43    1
    43    20    44    1
    44    21    45    1
    45    21    46    1
    46    21    47    1
    47    22    23    1
    48    24    48    1
    49    24    49    1
    50    25    26    1
    51    26    27    2
    52    26    50    1
    53    27    51    1
@<TRIPOS>SUBSTRUCTURE
     1 ZINC001015666108        1 TEMP              0 ****  ****    0 ROOT


##########                                Name:    ZINC000962730513
##########                DOCK_Rotatable_Bonds:                   6
##########                         Heavy_Atoms:                  24
##########                    Molecular_Weight:             342.465
##########                DOCK_Rotatable_Bonds:                   6
##########                       Formal_Charge:         -0.00999998
##########                     HBond_Acceptors:                   6
##########                        HBond_Donors:                   1
##########                         Heavy_Atoms:                  24
##########                          Grid_Score:          -29.985670
##########                     Grid_vdw_energy:          -29.693531
##########                      Grid_es_energy:           -0.292139
##########           Internal_energy_repulsive:           13.940731

@<TRIPOS>MOLECULE
ZINC000962730513
 46 49 1 0 0
SMALL
USER_CHARGES


@<TRIPOS>ATOM
      1 C1        -11.7989   -1.2407   52.0016 C.3     1  ZINC000962730513   -0.1400
      2 C2        -10.6052   -0.4908   52.5963 C.3     1  ZINC000962730513   -0.0800
      3 C3        -10.8580   -0.2221   54.0575 C.2     1  ZINC000962730513   -0.0100
      4 C4        -10.0836    0.6130   54.8127 C.2     1  ZINC000962730513   -0.2800
      5 C5         -8.9169    1.3582   54.3310 C.2     1  ZINC000962730513    0.6000
      6 O6         -8.5616    2.3705   54.9057 O.2     1  ZINC000962730513   -0.5200
      7 N7         -8.2376    0.9224   53.2516 N.am    1  ZINC000962730513   -0.7000
      8 C8         -7.0726    1.6682   52.7691 C.3     1  ZINC000962730513    0.1200
      9 H9         -6.4650    2.1406   53.5409 H       1  ZINC000962730513    0.1400
     10 C10        -7.2079    2.3995   51.4320 C.3     1  ZINC000962730513   -0.1700
     11 H11        -8.1683    2.4036   50.9167 H       1  ZINC000962730513    0.1200
     12 C12        -6.2310    3.5569   51.1335 C.3     1  ZINC000962730513    0.0700
     13 N13        -5.0472    2.8996   50.5224 N.3     1  ZINC000962730513   -0.5000
     14 C14        -3.8562    3.7526   50.6319 C.3     1  ZINC000962730513    0.1100
     15 C15        -2.8614    3.3653   49.5682 C.ar    1  ZINC000962730513    0.3200
     16 N16        -3.0810    2.2837   48.8479 N.ar    1  ZINC000962730513   -0.5100
     17 C17        -2.2296    1.9126   47.9052 C.ar    1  ZINC000962730513    0.1500
     18 C18        -1.0963    2.6782   47.6809 C.ar    1  ZINC000962730513   -0.1900
     19 C19        -0.1018    2.2912   46.6169 C.3     1  ZINC000962730513   -0.1100
     20 C20        -0.8999    3.8086   48.4585 C.ar    1  ZINC000962730513    0.1500
     21 N21        -1.7977    4.1202   49.3795 N.ar    1  ZINC000962730513   -0.5000
     22 C22        -4.8797    1.6483   51.3056 C.3     1  ZINC000962730513    0.0700
     23 C23        -6.3485    1.1242   51.5360 C.3     1  ZINC000962730513   -0.1700
     24 H24        -6.6239    0.1748   51.0768 H       1  ZINC000962730513    0.1300
     25 S25       -10.7113    0.6507   56.4548 S.3     1  ZINC000962730513    0.1900
     26 C26       -11.9612   -0.4385   56.0518 C.2     1  ZINC000962730513   -0.2200
     27 C27       -11.8940   -0.7881   54.7618 C.2     1  ZINC000962730513   -0.1500
     28 H28       -11.9322   -2.1864   52.5271 H       1  ZINC000962730513    0.0600
     29 H29       -12.6987   -0.6351   52.1093 H       1  ZINC000962730513    0.0500
     30 H30       -11.6160   -1.4350   50.9448 H       1  ZINC000962730513    0.0600
     31 H31        -9.7054   -1.0964   52.4886 H       1  ZINC000962730513    0.1000
     32 H32       -10.4718    0.4549   52.0708 H       1  ZINC000962730513    0.0700
     33 H33        -8.5202    0.1150   52.7943 H       1  ZINC000962730513    0.4000
     34 H34        -6.6788    4.2612   50.4323 H       1  ZINC000962730513    0.0900
     35 H35        -5.9497    4.0647   52.0561 H       1  ZINC000962730513    0.0500
     36 H36        -4.1429    4.7958   50.4987 H       1  ZINC000962730513    0.1000
     37 H37        -3.4053    3.6224   51.6157 H       1  ZINC000962730513    0.0700
     38 H38        -2.4154    1.0250   47.3187 H       1  ZINC000962730513    0.1700
     39 H39        -0.3783    2.7610   45.6730 H       1  ZINC000962730513    0.0800
     40 H40         0.8933    2.6250   46.9111 H       1  ZINC000962730513    0.0700
     41 H41        -0.1009    1.2078   46.4972 H       1  ZINC000962730513    0.0700
     42 H42        -0.0280    4.4288   48.3122 H       1  ZINC000962730513    0.1700
     43 H43        -4.3102    0.9155   50.7341 H       1  ZINC000962730513    0.0800
     44 H44        -4.3871    1.8574   52.2552 H       1  ZINC000962730513    0.0600
     45 H45       -12.7093   -0.7951   56.7443 H       1  ZINC000962730513    0.1700
     46 H46       -12.5974   -1.4713   54.3092 H       1  ZINC000962730513    0.1500
@<TRIPOS>BOND
     1     1     2    1
     2     1    28    1
     3     1    29    1
     4     1    30    1
     5     2     3    1
     6     2    31    1
     7     2    32    1
     8     3    27    1
     9     3     4    2
    10     4     5    1
    11     4    25    1
    12     5     6    2
    13     5     7   am
    14     7     8    1
    15     7    33    1
    16     8     9    1
    17     8    23    1
    18     8    10    1
    19    10    11    1
    20    10    23    1
    21    10    12    1
    22    12    13    1
    23    12    34    1
    24    12    35    1
    25    13    14    1
    26    13    22    1
    27    14    15    1
    28    14    36    1
    29    14    37    1
    30    15    21   ar
    31    15    16   ar
    32    16    17   ar
    33    17    18   ar
    34    17    38    1
    35    18    19    1
    36    18    20   ar
    37    19    39    1
    38    19    40    1
    39    19    41    1
    40    20    21   ar
    41    20    42    1
    42    22    23    1
    43    22    43    1
    44    22    44    1
    45    23    24    1
    46    25    26    1
    47    26    27    2
    48    26    45    1
    49    27    46    1
@<TRIPOS>SUBSTRUCTURE
     1 ZINC000962730513        1 TEMP              0 ****  ****    0 ROOT


##########                                Name:    ZINC000054627026
##########                DOCK_Rotatable_Bonds:                   5
##########                         Heavy_Atoms:                  28
##########                    Molecular_Weight:              370.37
##########                DOCK_Rotatable_Bonds:                   5
##########                       Formal_Charge:         6.85453e-07
##########                     HBond_Acceptors:                   8
##########                        HBond_Donors:                   2
##########                         Heavy_Atoms:                  28
##########                          Grid_Score:          -29.982252
##########                     Grid_vdw_energy:          -30.254202
##########                      Grid_es_energy:            0.271950
##########           Internal_energy_repulsive:            4.976725

@<TRIPOS>MOLECULE
ZINC000054627026
 42 46 1 0 0
SMALL
USER_CHARGES


@<TRIPOS>ATOM
      1 O1        -10.3319    1.5828   51.7272 O.2     1  ZINC000054627026   -0.5200
      2 C2        -10.0749    0.7040   52.5275 C.2     1  ZINC000054627026    0.6100
      3 N3         -8.8102    0.5373   52.9623 N.am    1  ZINC000054627026   -0.6500
      4 C4         -7.7909    1.3724   52.4882 C.ar    1  ZINC000054627026    0.1400
      5 C5         -7.7872    2.7232   52.8294 C.ar    1  ZINC000054627026   -0.0900
      6 C6         -6.7894    3.5560   52.3696 C.ar    1  ZINC000054627026   -0.0900
      7 C7         -5.7814    3.0495   51.5622 C.ar    1  ZINC000054627026    0.0500
      8 N8         -4.6698    3.6080   50.9554 N.pl3   1  ZINC000054627026   -0.5900
      9 C9         -4.0346    2.6036   50.2719 C.2     1  ZINC000054627026    0.3700
     10 C10        -2.8036    2.7632   49.4838 C.2     1  ZINC000054627026    0.0200
     11 C11        -2.6136    2.3412   48.2016 C.2     1  ZINC000054627026   -0.1200
     12 C12        -1.3003    2.6999   47.8479 C.2     1  ZINC000054627026   -0.2200
     13 C13        -0.7563    3.3166   48.9176 C.2     1  ZINC000054627026   -0.0100
     14 O14        -1.6679    3.3575   49.9011 O.3     1  ZINC000054627026   -0.1700
     15 N15        -4.6920    1.4769   50.4281 N.2     1  ZINC000054627026   -0.4600
     16 C16        -5.7768    1.6872   51.2125 C.ar    1  ZINC000054627026    0.0700
     17 C17        -6.7910    0.8506   51.6889 C.ar    1  ZINC000054627026   -0.0900
     18 C18       -11.1485   -0.1755   53.0269 C.2     1  ZINC000054627026   -0.1000
     19 C19       -11.0225   -1.1038   54.0214 C.2     1  ZINC000054627026    0.1000
     20 N20       -12.2326   -1.6860   54.1675 N.pl3   1  ZINC000054627026   -0.3100
     21 C21       -12.5693   -2.6986   55.0772 C.ar    1  ZINC000054627026    0.1300
     22 C22       -11.6077   -3.2056   55.9407 C.ar    1  ZINC000054627026   -0.1200
     23 C23       -11.9423   -4.2026   56.8360 C.ar    1  ZINC000054627026   -0.1000
     24 C24       -13.2336   -4.6962   56.8726 C.ar    1  ZINC000054627026   -0.1100
     25 C25       -14.1934   -4.1935   56.0134 C.ar    1  ZINC000054627026   -0.1000
     26 C26       -13.8662   -3.1921   55.1201 C.ar    1  ZINC000054627026   -0.1000
     27 N27       -13.0874   -1.0822   53.2343 N.2     1  ZINC000054627026   -0.0500
     28 N28       -12.4177   -0.1950   52.5846 N.2     1  ZINC000054627026   -0.2000
     29 H29        -8.6060   -0.1611   53.6039 H       1  ZINC000054627026    0.4200
     30 H30        -8.5709    3.1202   53.4574 H       1  ZINC000054627026    0.1500
     31 H31        -6.7927    4.6024   52.6375 H       1  ZINC000054627026    0.1300
     32 H32        -4.3926    4.5363   51.0042 H       1  ZINC000054627026    0.4300
     33 H33        -3.3322    1.8299   47.5781 H       1  ZINC000054627026    0.1600
     34 H34        -0.8182    2.5159   46.8992 H       1  ZINC000054627026    0.1600
     35 H35         0.2463    3.7145   48.9718 H       1  ZINC000054627026    0.2100
     36 H36        -6.7947   -0.1983   51.4311 H       1  ZINC000054627026    0.1400
     37 H37       -10.1276   -1.3290   54.5826 H       1  ZINC000054627026    0.2100
     38 H38       -10.5989   -2.8211   55.9122 H       1  ZINC000054627026    0.1400
     39 H39       -11.1948   -4.5975   57.5080 H       1  ZINC000054627026    0.1400
     40 H40       -13.4929   -5.4761   57.5732 H       1  ZINC000054627026    0.1400
     41 H41       -15.2009   -4.5811   56.0440 H       1  ZINC000054627026    0.1400
     42 H42       -14.6163   -2.7999   54.4493 H       1  ZINC000054627026    0.1400
@<TRIPOS>BOND
     1     1     2    2
     2     2     3   am
     3     2    18    1
     4     3     4    1
     5     3    29    1
     6     4    17   ar
     7     4     5   ar
     8     5     6   ar
     9     5    30    1
    10     6     7   ar
    11     6    31    1
    12     7    16   ar
    13     7     8    1
    14     8     9    1
    15     8    32    1
    16     9    10    1
    17     9    15    2
    18    10    14    1
    19    10    11    2
    20    11    12    1
    21    11    33    1
    22    12    13    2
    23    12    34    1
    24    13    14    1
    25    13    35    1
    26    15    16    1
    27    16    17   ar
    28    17    36    1
    29    18    28    1
    30    18    19    2
    31    19    20    1
    32    19    37    1
    33    20    21    1
    34    20    27    1
    35    21    26   ar
    36    21    22   ar
    37    22    23   ar
    38    22    38    1
    39    23    24   ar
    40    23    39    1
    41    24    25   ar
    42    24    40    1
    43    25    26   ar
    44    25    41    1
    45    26    42    1
    46    27    28    2
@<TRIPOS>SUBSTRUCTURE
     1 ZINC000054627026        1 TEMP              0 ****  ****    0 ROOT


##########                                Name:    ZINC000859202493
##########                DOCK_Rotatable_Bonds:                  11
##########                         Heavy_Atoms:                  25
##########                    Molecular_Weight:             382.404
##########                DOCK_Rotatable_Bonds:                  11
##########                       Formal_Charge:          -0.0200009
##########                     HBond_Acceptors:                  10
##########                        HBond_Donors:                   3
##########                         Heavy_Atoms:                  25
##########                          Grid_Score:          -29.961338
##########                     Grid_vdw_energy:          -29.518303
##########                      Grid_es_energy:           -0.443036
##########           Internal_energy_repulsive:           15.146059

@<TRIPOS>MOLECULE
ZINC000859202493
 46 46 1 0 0
SMALL
USER_CHARGES


@<TRIPOS>ATOM
      1 C1          3.0071   -1.3230   50.0060 C.3     1  ZINC000859202493   -0.1500
      2 C2          3.3431    0.1200   49.6244 C.3     1  ZINC000859202493   -0.1200
      3 C3          2.3852    0.5945   48.5298 C.3     1  ZINC000859202493   -0.1000
      4 H4          1.4067    0.1386   48.6807 H       1  ZINC000859202493    0.0700
      5 C5          2.9325    0.1858   47.1608 C.3     1  ZINC000859202493   -0.1600
      6 C6          2.2533    2.1175   48.5924 C.3     1  ZINC000859202493   -0.1200
      7 C7          0.8706    2.4879   49.1325 C.3     1  ZINC000859202493    0.1600
      8 H8          0.7627    3.5725   49.1416 H       1  ZINC000859202493    0.1000
      9 C9          0.7177    1.9483   50.5561 C.3     1  ZINC000859202493    0.0500
     10 O10         1.6228    2.6329   51.4247 O.3     1  ZINC000859202493   -0.5700
     11 N11        -0.1620    1.9015   48.2746 N.am    1  ZINC000859202493   -1.1000
     12 S12        -1.3953    2.8456   47.6998 S.o2    1  ZINC000859202493    2.6900
     13 O13        -0.7845    3.9578   47.0601 O.2     1  ZINC000859202493   -0.9500
     14 O14        -2.2978    1.9685   47.0400 O.2     1  ZINC000859202493   -0.9500
     15 C15        -2.2563    3.4865   49.0972 C.ar    1  ZINC000859202493   -0.6600
     16 C16        -2.0637    4.7998   49.4841 C.ar    1  ZINC000859202493   -0.0300
     17 C17        -2.7373    5.3065   50.5807 C.ar    1  ZINC000859202493   -0.1100
     18 C18        -3.6050    4.5018   51.2923 C.ar    1  ZINC000859202493   -0.0600
     19 C19        -3.8009    3.1822   50.9059 C.ar    1  ZINC000859202493    0.1200
     20 N20        -4.6797    2.3643   51.6246 N.am    1  ZINC000859202493   -0.6500
     21 C21        -5.9850    2.3213   51.2916 C.2     1  ZINC000859202493    0.4800
     22 O22        -6.3979    2.9915   50.3689 O.2     1  ZINC000859202493   -0.4500
     23 C23        -6.9315    1.4404   52.0657 C.3     1  ZINC000859202493    0.4600
     24 F24        -6.8639    1.7645   53.4249 F       1  ZINC000859202493   -0.1500
     25 F25        -8.2369    1.6389   51.6034 F       1  ZINC000859202493   -0.1600
     26 F26        -6.5724    0.1001   51.8874 F       1  ZINC000859202493   -0.1600
     27 C27        -3.1271    2.6779   49.8014 C.ar    1  ZINC000859202493   -0.0300
     28 H28         3.6895   -1.6609   50.7858 H       1  ZINC000859202493    0.0500
     29 H29         1.9821   -1.3723   50.3738 H       1  ZINC000859202493    0.0500
     30 H30         3.1100   -1.9638   49.1303 H       1  ZINC000859202493    0.0600
     31 H31         3.2401    0.7609   50.5001 H       1  ZINC000859202493    0.0600
     32 H32         4.3680    0.1693   49.2567 H       1  ZINC000859202493    0.0600
     33 H33         2.2500    0.5238   46.3810 H       1  ZINC000859202493    0.0500
     34 H34         3.9110    0.6417   47.0099 H       1  ZINC000859202493    0.0600
     35 H35         3.0265   -0.8992   47.1162 H       1  ZINC000859202493    0.0600
     36 H36         3.0213    2.5219   49.2519 H       1  ZINC000859202493    0.0800
     37 H37         2.3766    2.5343   47.5928 H       1  ZINC000859202493    0.0800
     38 H38        -0.3049    2.1086   50.8975 H       1  ZINC000859202493    0.0600
     39 H39         0.9413    0.8816   50.5662 H       1  ZINC000859202493    0.0600
     40 H40         1.6274    2.2972   52.3314 H       1  ZINC000859202493    0.3800
     41 H41        -0.1233    0.9604   48.0431 H       1  ZINC000859202493    0.4200
     42 H42        -1.3857    5.4312   48.9293 H       1  ZINC000859202493    0.1500
     43 H43        -2.5842    6.3327   50.8808 H       1  ZINC000859202493    0.1400
     44 H44        -4.1303    4.8980   52.1487 H       1  ZINC000859202493    0.1400
     45 H45        -4.3495    1.8281   52.3625 H       1  ZINC000859202493    0.4200
     46 H46        -3.2773    1.6523   49.4984 H       1  ZINC000859202493    0.1500
@<TRIPOS>BOND
     1     1     2    1
     2     1    28    1
     3     1    29    1
     4     1    30    1
     5     2     3    1
     6     2    31    1
     7     2    32    1
     8     3     4    1
     9     3     5    1
    10     3     6    1
    11     5    33    1
    12     5    34    1
    13     5    35    1
    14     6     7    1
    15     6    36    1
    16     6    37    1
    17     7     8    1
    18     7     9    1
    19     7    11    1
    20     9    10    1
    21     9    38    1
    22     9    39    1
    23    10    40    1
    24    11    12   am
    25    11    41    1
    26    12    13    2
    27    12    14    2
    28    12    15    1
    29    15    27   ar
    30    15    16   ar
    31    16    17   ar
    32    16    42    1
    33    17    18   ar
    34    17    43    1
    35    18    19   ar
    36    18    44    1
    37    19    20    1
    38    19    27   ar
    39    20    21   am
    40    20    45    1
    41    21    22    2
    42    21    23    1
    43    23    24    1
    44    23    25    1
    45    23    26    1
    46    27    46    1
@<TRIPOS>SUBSTRUCTURE
     1 ZINC000859202493        1 TEMP              0 ****  ****    0 ROOT


##########                                Name:    ZINC001143596311
##########                DOCK_Rotatable_Bonds:                   9
##########                         Heavy_Atoms:                  21
##########                    Molecular_Weight:             335.811
##########                DOCK_Rotatable_Bonds:                   9
##########                       Formal_Charge:          0.00999959
##########                     HBond_Acceptors:                   9
##########                        HBond_Donors:                   3
##########                         Heavy_Atoms:                  21
##########                          Grid_Score:          -29.930222
##########                     Grid_vdw_energy:          -28.856604
##########                      Grid_es_energy:           -1.073617
##########           Internal_energy_repulsive:           14.181809

@<TRIPOS>MOLECULE
ZINC001143596311
 39 39 1 0 0
SMALL
USER_CHARGES


@<TRIPOS>ATOM
      1 C1          2.6464   -1.5813   48.8567 C.3     1  ZINC001143596311    0.0400
      2 O2          3.1024   -0.2360   49.0130 O.3     1  ZINC001143596311   -0.2600
      3 N3          2.9199    0.5962   47.8237 N.3     1  ZINC001143596311   -0.3700
      4 C4          3.8044    0.1596   46.7350 C.3     1  ZINC001143596311    0.0000
      5 C5          1.5156    0.5975   47.3926 C.3     1  ZINC001143596311    0.0400
      6 C6          1.2320    1.8642   46.5827 C.3     1  ZINC001143596311   -0.1300
      7 C7         -0.2801    2.0591   46.4536 C.3     1  ZINC001143596311    0.1200
      8 N8         -0.8268    2.5024   47.7384 N.am    1  ZINC001143596311   -0.7200
      9 C9         -2.1017    2.2113   48.0647 C.2     1  ZINC001143596311    0.5600
     10 O10        -2.7974    1.5797   47.2935 O.2     1  ZINC001143596311   -0.5200
     11 C11        -2.6537    2.6599   49.3601 C.ar    1  ZINC001143596311   -0.1500
     12 C12        -1.7988    3.1077   50.3687 C.ar    1  ZINC001143596311   -0.0200
     13 C13        -2.3199    3.5251   51.5755 C.ar    1  ZINC001143596311   -0.1300
     14 C14        -3.6882    3.5002   51.7879 C.ar    1  ZINC001143596311    0.0700
     15 Cl15       -4.3367    4.0272   53.3095 Cl      1  ZINC001143596311   -0.0200
     16 C16        -4.5416    3.0569   50.7907 C.ar    1  ZINC001143596311   -0.6800
     17 S17        -6.2811    3.0294   51.0700 S.o2    1  ZINC001143596311    2.7000
     18 N18        -6.5479    2.0909   52.4080 N.am    1  ZINC001143596311   -1.2500
     19 O19        -6.6509    4.3537   51.4285 O.2     1  ZINC001143596311   -0.9400
     20 O20        -6.8530    2.3332   49.9711 O.2     1  ZINC001143596311   -0.9500
     21 C21        -4.0329    2.6429   49.5779 C.ar    1  ZINC001143596311    0.0500
     22 H22         1.5811   -1.5793   48.6258 H       1  ZINC001143596311    0.0400
     23 H23         3.1935   -2.0582   48.0434 H       1  ZINC001143596311    0.0500
     24 H24         2.8167   -2.1325   49.7815 H       1  ZINC001143596311    0.0900
     25 H25         3.5785   -0.8748   46.4759 H       1  ZINC001143596311    0.0400
     26 H26         3.6483    0.7950   45.8633 H       1  ZINC001143596311    0.0900
     27 H27         4.8427    0.2348   47.0582 H       1  ZINC001143596311    0.0800
     28 H28         1.3246   -0.2795   46.7741 H       1  ZINC001143596311    0.0500
     29 H29         0.8667    0.5730   48.2680 H       1  ZINC001143596311    0.0900
     30 H30         1.6672    2.7250   47.0903 H       1  ZINC001143596311    0.0800
     31 H31         1.6718    1.7670   45.5901 H       1  ZINC001143596311    0.0800
     32 H32        -0.4857    2.8116   45.6923 H       1  ZINC001143596311    0.0800
     33 H33        -0.7449    1.1159   46.1669 H       1  ZINC001143596311    0.0800
     34 H34        -0.2713    3.0053   48.3543 H       1  ZINC001143596311    0.4000
     35 H35        -0.7316    3.1270   50.2045 H       1  ZINC001143596311    0.1500
     36 H36        -1.6595    3.8718   52.3566 H       1  ZINC001143596311    0.1600
     37 H37        -7.4523    1.9507   52.7297 H       1  ZINC001143596311    0.4200
     38 H38        -5.7999    1.6813   52.8701 H       1  ZINC001143596311    0.4200
     39 H39        -4.6991    2.2974   48.8012 H       1  ZINC001143596311    0.1700
@<TRIPOS>BOND
     1     1     2    1
     2     1    22    1
     3     1    23    1
     4     1    24    1
     5     2     3    1
     6     3     4    1
     7     3     5    1
     8     4    25    1
     9     4    26    1
    10     4    27    1
    11     5     6    1
    12     5    28    1
    13     5    29    1
    14     6     7    1
    15     6    30    1
    16     6    31    1
    17     7     8    1
    18     7    32    1
    19     7    33    1
    20     8     9   am
    21     8    34    1
    22     9    10    2
    23     9    11    1
    24    11    21   ar
    25    11    12   ar
    26    12    13   ar
    27    12    35    1
    28    13    14   ar
    29    13    36    1
    30    14    15    1
    31    14    16   ar
    32    16    17    1
    33    16    21   ar
    34    17    18   am
    35    17    19    2
    36    17    20    2
    37    18    37    1
    38    18    38    1
    39    21    39    1
@<TRIPOS>SUBSTRUCTURE
     1 ZINC001143596311        1 TEMP              0 ****  ****    0 ROOT


##########                                Name:    ZINC000821442454
##########                DOCK_Rotatable_Bonds:                   6
##########                         Heavy_Atoms:                  26
##########                    Molecular_Weight:             398.873
##########                DOCK_Rotatable_Bonds:                   6
##########                       Formal_Charge:          -0.0399996
##########                     HBond_Acceptors:                  11
##########                        HBond_Donors:                   2
##########                         Heavy_Atoms:                  26
##########                          Grid_Score:          -29.929743
##########                     Grid_vdw_energy:          -26.509621
##########                      Grid_es_energy:           -3.420122
##########           Internal_energy_repulsive:            8.363372

@<TRIPOS>MOLECULE
ZINC000821442454
 45 47 1 0 0
SMALL
USER_CHARGES


@<TRIPOS>ATOM
      1 C1         -9.9420    1.2840   58.9151 C.3     1  ZINC000821442454   -0.1500
      2 C2         -8.6123    1.9339   58.5270 C.3     1  ZINC000821442454   -0.6300
      3 S3         -8.8808    3.0852   57.1512 S.o2    1  ZINC000821442454    2.6000
      4 O4         -9.2925    2.3831   55.9865 O.2     1  ZINC000821442454   -0.9500
      5 O5         -9.5797    4.2397   57.5962 O.2     1  ZINC000821442454   -0.9500
      6 N6         -7.3669    3.6431   56.7778 N.am    1  ZINC000821442454   -1.0000
      7 C7         -6.5642    4.3575   57.7799 C.3     1  ZINC000821442454    0.1100
      8 C8         -6.1189    5.6992   57.1896 C.3     1  ZINC000821442454   -0.1300
      9 C9         -5.3955    5.4536   55.8636 C.3     1  ZINC000821442454   -0.1100
     10 C10        -6.3527    4.7847   54.8746 C.3     1  ZINC000821442454   -0.1200
     11 H11        -7.2238    5.4223   54.7234 H       1  ZINC000821442454    0.1100
     12 C12        -5.6495    4.5734   53.5585 C.2     1  ZINC000821442454    0.5300
     13 O13        -5.6988    5.4290   52.7003 O.2     1  ZINC000821442454   -0.5100
     14 N14        -4.9659    3.4335   53.3352 N.am    1  ZINC000821442454   -0.6700
     15 C15        -4.3132    3.2373   52.1137 C.ar    1  ZINC000821442454    0.1800
     16 C16        -3.0624    3.8013   51.8971 C.ar    1  ZINC000821442454   -0.1200
     17 C17        -2.4166    3.6087   50.6938 C.ar    1  ZINC000821442454   -0.0500
     18 C18        -3.0194    2.8478   49.6943 C.ar    1  ZINC000821442454   -0.0300
     19 C19        -2.3257    2.6393   48.3989 C.2     1  ZINC000821442454    0.2200
     20 N20        -1.2779    3.3023   47.9511 N.2     1  ZINC000821442454   -0.2900
     21 N21        -0.9755    2.8259   46.7924 N.pl3   1  ZINC000821442454   -0.2200
     22 N22        -1.7981    1.8823   46.4920 N.2     1  ZINC000821442454   -0.0400
     23 N23        -2.6391    1.7362   47.4589 N.2     1  ZINC000821442454   -0.2700
     24 C24        -4.2746    2.2824   49.9126 C.ar    1  ZINC000821442454   -0.0500
     25 C25        -4.9149    2.4729   51.1196 C.ar    1  ZINC000821442454   -0.0800
     26 Cl26       -6.4782    1.7692   51.3928 Cl      1  ZINC000821442454   -0.0500
     27 C27        -6.7984    3.4277   55.4403 C.3     1  ZINC000821442454    0.1400
     28 H28       -10.6484    2.0561   59.2199 H       1  ZINC000821442454    0.0700
     29 H29       -10.3441    0.7409   58.0598 H       1  ZINC000821442454    0.0700
     30 H30        -9.7807    0.5922   59.7417 H       1  ZINC000821442454    0.0800
     31 H31        -8.2102    2.4771   59.3822 H       1  ZINC000821442454    0.1300
     32 H32        -7.9059    1.1617   58.2221 H       1  ZINC000821442454    0.1300
     33 H33        -7.1650    4.5323   58.6724 H       1  ZINC000821442454    0.1000
     34 H34        -5.6878    3.7629   58.0377 H       1  ZINC000821442454    0.0700
     35 H35        -6.9921    6.3282   57.0166 H       1  ZINC000821442454    0.0700
     36 H36        -5.4436    6.1967   57.8858 H       1  ZINC000821442454    0.0800
     37 H37        -5.0559    6.4048   55.4535 H       1  ZINC000821442454    0.0700
     38 H38        -4.5366    4.8043   56.0333 H       1  ZINC000821442454    0.0800
     39 H39        -4.9266    2.7492   54.0215 H       1  ZINC000821442454    0.4200
     40 H40        -2.5953    4.3914   52.6718 H       1  ZINC000821442454    0.1600
     41 H41        -1.4443    4.0479   50.5261 H       1  ZINC000821442454    0.1500
     42 H42        -0.2432    3.1306   46.2342 H       1  ZINC000821442454    0.4800
     43 H43        -4.7435    1.6924   49.1392 H       1  ZINC000821442454    0.1500
     44 H44        -5.9399    2.7592   55.5055 H       1  ZINC000821442454    0.0800
     45 H45        -7.5554    2.9911   54.7889 H       1  ZINC000821442454    0.1000
@<TRIPOS>BOND
     1     1     2    1
     2     1    28    1
     3     1    29    1
     4     1    30    1
     5     2     3    1
     6     2    31    1
     7     2    32    1
     8     3     4    2
     9     3     5    2
    10     3     6   am
    11     6    27    1
    12     6     7    1
    13     7     8    1
    14     7    33    1
    15     7    34    1
    16     8     9    1
    17     8    35    1
    18     8    36    1
    19     9    10    1
    20     9    37    1
    21     9    38    1
    22    10    11    1
    23    10    12    1
    24    10    27    1
    25    12    13    2
    26    12    14   am
    27    14    15    1
    28    14    39    1
    29    15    25   ar
    30    15    16   ar
    31    16    17   ar
    32    16    40    1
    33    17    18   ar
    34    17    41    1
    35    18    19    1
    36    18    24   ar
    37    19    23    1
    38    19    20    2
    39    20    21    1
    40    21    22    1
    41    21    42    1
    42    22    23    2
    43    24    25   ar
    44    24    43    1
    45    25    26    1
    46    27    44    1
    47    27    45    1
@<TRIPOS>SUBSTRUCTURE
     1 ZINC000821442454        1 TEMP              0 ****  ****    0 ROOT


##########                                Name:    ZINC000432058199
##########                DOCK_Rotatable_Bonds:                   5
##########                         Heavy_Atoms:                  30
##########                    Molecular_Weight:             406.441
##########                DOCK_Rotatable_Bonds:                   5
##########                       Formal_Charge:        -4.02331e-07
##########                     HBond_Acceptors:                   8
##########                        HBond_Donors:                   1
##########                         Heavy_Atoms:                  30
##########                          Grid_Score:          -29.918201
##########                     Grid_vdw_energy:          -30.157984
##########                      Grid_es_energy:            0.239782
##########           Internal_energy_repulsive:           16.616365

@<TRIPOS>MOLECULE
ZINC000432058199
 52 55 1 0 0
SMALL
USER_CHARGES


@<TRIPOS>ATOM
      1 C1         -8.8644    0.7029   63.3769 C.3     1  ZINC000432058199    0.0300
      2 O2         -8.7509    1.8414   62.5208 O.3     1  ZINC000432058199   -0.3100
      3 C3         -9.0379    1.6554   61.2055 C.ar    1  ZINC000432058199    0.1300
      4 C4         -8.9349    2.7159   60.3160 C.ar    1  ZINC000432058199   -0.1900
      5 C5         -9.2258    2.5311   58.9772 C.ar    1  ZINC000432058199   -0.0800
      6 C6         -9.6204    1.2908   58.5177 C.ar    1  ZINC000432058199   -0.1100
      7 C7         -9.7259    0.2206   59.4042 C.ar    1  ZINC000432058199    0.0100
      8 C8        -10.1496   -1.1143   58.9125 C.2     1  ZINC000432058199    0.2100
      9 N9        -10.1180   -2.2351   59.5849 N.2     1  ZINC000432058199   -0.3700
     10 O10       -10.5321   -3.1451   58.8982 O.3     1  ZINC000432058199    0.1200
     11 C11       -10.8777   -2.6869   57.6910 C.2     1  ZINC000432058199    0.1600
     12 C12       -11.4362   -3.4994   56.5514 C.3     1  ZINC000432058199    0.2500
     13 H13       -10.9293   -4.4634   56.5098 H       1  ZINC000432058199    0.1500
     14 C14       -11.2166   -2.7505   55.2354 C.3     1  ZINC000432058199   -0.1700
     15 N15       -12.8710   -3.7107   56.7594 N.am    1  ZINC000432058199   -0.5800
     16 C16       -13.4402   -4.9125   56.9064 C.2     1  ZINC000432058199    0.7000
     17 O17       -12.8236   -5.9595   56.8820 O.2     1  ZINC000432058199   -0.5100
     18 N18       -14.7711   -4.8324   57.0843 N.am    1  ZINC000432058199   -0.7200
     19 C19       -15.1156   -3.4005   57.0493 C.3     1  ZINC000432058199    0.1400
     20 H20       -15.7959   -3.1898   56.2242 H       1  ZINC000432058199    0.1400
     21 C21       -15.7235   -2.9692   58.3591 C.ar    1  ZINC000432058199   -0.1000
     22 C22       -14.9089   -2.6923   59.4411 C.ar    1  ZINC000432058199   -0.1000
     23 C23       -15.4666   -2.2967   60.6426 C.ar    1  ZINC000432058199   -0.0800
     24 C24       -14.5788   -1.9952   61.8223 C.3     1  ZINC000432058199   -0.1200
     25 C25       -16.8386   -2.1772   60.7617 C.ar    1  ZINC000432058199   -0.1100
     26 C26       -17.6530   -2.4537   59.6795 C.ar    1  ZINC000432058199   -0.0800
     27 C27       -19.1489   -2.3239   59.8095 C.3     1  ZINC000432058199   -0.1200
     28 C28       -17.0952   -2.8452   58.4769 C.ar    1  ZINC000432058199   -0.1000
     29 C29       -13.7796   -2.7180   56.8321 C.2     1  ZINC000432058199    0.5300
     30 O30       -13.5724   -1.5272   56.7376 O.2     1  ZINC000432058199   -0.4500
     31 N31       -10.6459   -1.3977   57.6870 N.2     1  ZINC000432058199   -0.4500
     32 C32        -9.4277    0.4058   60.7515 C.ar    1  ZINC000432058199   -0.1200
     33 H33        -8.6082    0.9884   64.3972 H       1  ZINC000432058199    0.1000
     34 H34        -9.8881    0.3290   63.3505 H       1  ZINC000432058199    0.0600
     35 H35        -8.1838   -0.0773   63.0361 H       1  ZINC000432058199    0.0600
     36 H36        -8.6268    3.6883   60.6709 H       1  ZINC000432058199    0.1400
     37 H37        -9.1445    3.3595   58.2891 H       1  ZINC000432058199    0.1400
     38 H38        -9.8477    1.1497   57.4713 H       1  ZINC000432058199    0.1400
     39 H39       -11.7235   -1.7865   55.2769 H       1  ZINC000432058199    0.0900
     40 H40       -10.1491   -2.5933   55.0806 H       1  ZINC000432058199    0.0900
     41 H41       -11.6206   -3.3383   54.4111 H       1  ZINC000432058199    0.0900
     42 H42       -15.3847   -5.5731   57.2104 H       1  ZINC000432058199    0.4500
     43 H43       -13.8371   -2.7852   59.3479 H       1  ZINC000432058199    0.1200
     44 H44       -14.3052   -0.9401   61.8109 H       1  ZINC000432058199    0.0700
     45 H45       -15.1117   -2.2224   62.7456 H       1  ZINC000432058199    0.0700
     46 H46       -13.6772   -2.6049   61.7638 H       1  ZINC000432058199    0.0700
     47 H47       -17.2742   -1.8682   61.7004 H       1  ZINC000432058199    0.1300
     48 H48       -19.4499   -1.3103   59.5450 H       1  ZINC000432058199    0.0700
     49 H49       -19.6346   -3.0337   59.1400 H       1  ZINC000432058199    0.0700
     50 H50       -19.4438   -2.5340   60.8377 H       1  ZINC000432058199    0.0700
     51 H51       -17.7315   -3.0613   57.6314 H       1  ZINC000432058199    0.1300
     52 H52        -9.5079   -0.4204   61.4424 H       1  ZINC000432058199    0.1400
@<TRIPOS>BOND
     1     1     2    1
     2     1    33    1
     3     1    34    1
     4     1    35    1
     5     2     3    1
     6     3    32   ar
     7     3     4   ar
     8     4     5   ar
     9     4    36    1
    10     5     6   ar
    11     5    37    1
    12     6     7   ar
    13     6    38    1
    14     7     8    1
    15     7    32   ar
    16     8    31    1
    17     8     9    2
    18     9    10    1
    19    10    11    1
    20    11    12    1
    21    11    31    2
    22    12    13    1
    23    12    14    1
    24    12    15    1
    25    14    39    1
    26    14    40    1
    27    14    41    1
    28    15    29   am
    29    15    16   am
    30    16    17    2
    31    16    18   am
    32    18    19    1
    33    18    42    1
    34    19    20    1
    35    19    21    1
    36    19    29    1
    37    21    28   ar
    38    21    22   ar
    39    22    23   ar
    40    22    43    1
    41    23    24    1
    42    23    25   ar
    43    24    44    1
    44    24    45    1
    45    24    46    1
    46    25    26   ar
    47    25    47    1
    48    26    27    1
    49    26    28   ar
    50    27    48    1
    51    27    49    1
    52    27    50    1
    53    28    51    1
    54    29    30    2
    55    32    52    1
@<TRIPOS>SUBSTRUCTURE
     1 ZINC000432058199        1 TEMP              0 ****  ****    0 ROOT


##########                                Name:    ZINC001079355651
##########                DOCK_Rotatable_Bonds:                   5
##########                         Heavy_Atoms:                  25
##########                    Molecular_Weight:             353.851
##########                DOCK_Rotatable_Bonds:                   5
##########                       Formal_Charge:           0.0199997
##########                     HBond_Acceptors:                   5
##########                        HBond_Donors:                   1
##########                         Heavy_Atoms:                  25
##########                          Grid_Score:          -29.916840
##########                     Grid_vdw_energy:          -29.631214
##########                      Grid_es_energy:           -0.285626
##########           Internal_energy_repulsive:            4.895685

@<TRIPOS>MOLECULE
ZINC001079355651
 45 47 1 0 0
SMALL
USER_CHARGES


@<TRIPOS>ATOM
      1 C1         -1.0201    4.7669   51.3790 C.3     1  ZINC001079355651   -0.1500
      2 C2         -1.4282    3.4551   50.7053 C.3     1  ZINC001079355651   -0.1000
      3 H3         -1.5778    2.6766   51.4533 H       1  ZINC001079355651    0.0900
      4 C4         -0.3543    3.0195   49.6853 C.3     1  ZINC001079355651    0.0300
      5 N5         -1.1245    2.4351   48.5574 N.3     1  ZINC001079355651   -0.5100
      6 C6         -0.3272    2.4270   47.3237 C.3     1  ZINC001079355651    0.1600
      7 C7          0.9197    1.6782   47.5503 C.1     1  ZINC001079355651   -0.1400
      8 C8          1.9141    1.0809   47.7310 C.1     1  ZINC001079355651   -0.1300
      9 C9          3.1271    0.3524   47.9515 C.ar    1  ZINC001079355651    0.0300
     10 C10         4.1134    0.3195   46.9652 C.ar    1  ZINC001079355651   -0.0900
     11 C11         5.2804   -0.3843   47.1831 C.ar    1  ZINC001079355651   -0.1000
     12 C12         5.4739   -1.0563   48.3763 C.ar    1  ZINC001079355651   -0.1000
     13 C13         4.4990   -1.0284   49.3594 C.ar    1  ZINC001079355651   -0.0300
     14 Cl14        4.7507   -1.8756   50.8535 Cl      1  ZINC001079355651   -0.0600
     15 C15         3.3298   -0.3227   49.1557 C.ar    1  ZINC001079355651   -0.0900
     16 C16        -2.3059    3.3256   48.4220 C.3     1  ZINC001079355651    0.0200
     17 C17        -2.7136    3.6559   49.8763 C.3     1  ZINC001079355651    0.1500
     18 H18        -3.0532    4.6890   49.9490 H       1  ZINC001079355651    0.1000
     19 N19        -3.7653    2.7424   50.3300 N.am    1  ZINC001079355651   -0.7100
     20 C20        -4.6776    3.1591   51.2303 C.2     1  ZINC001079355651    0.5600
     21 O21        -4.6285    4.2929   51.6648 O.2     1  ZINC001079355651   -0.5300
     22 C22        -5.7401    2.2348   51.6903 C.ar    1  ZINC001079355651   -0.0900
     23 C23        -6.7184    2.6580   52.5951 C.ar    1  ZINC001079355651   -0.1400
     24 C24        -7.6907    1.7629   52.9974 C.ar    1  ZINC001079355651    0.1000
     25 N25        -7.7034    0.5266   52.5403 N.ar    1  ZINC001079355651   -0.4700
     26 C26        -6.8003    0.0872   51.6866 C.ar    1  ZINC001079355651    0.1000
     27 C27        -5.7957    0.9167   51.2272 C.ar    1  ZINC001079355651   -0.1200
     28 H28        -1.8099    5.0874   52.0584 H       1  ZINC001079355651    0.0600
     29 H29        -0.0977    4.6157   51.9396 H       1  ZINC001079355651    0.0700
     30 H30        -0.8620    5.5319   50.6189 H       1  ZINC001079355651    0.0600
     31 H31         0.2204    3.8816   49.3469 H       1  ZINC001079355651    0.0600
     32 H32         0.3049    2.2705   50.1241 H       1  ZINC001079355651    0.0900
     33 H33        -0.8971    1.9509   46.5259 H       1  ZINC001079355651    0.0700
     34 H34        -0.0888    3.4517   47.0384 H       1  ZINC001079355651    0.1100
     35 H35         3.9638    0.8434   46.0328 H       1  ZINC001079355651    0.1300
     36 H36         6.0442   -0.4105   46.4200 H       1  ZINC001079355651    0.1400
     37 H37         6.3889   -1.6057   48.5418 H       1  ZINC001079355651    0.1400
     38 H38         2.5700   -0.3012   49.9229 H       1  ZINC001079355651    0.1400
     39 H39        -2.0366    4.2356   47.8858 H       1  ZINC001079355651    0.0600
     40 H40        -3.1161    2.8069   47.9095 H       1  ZINC001079355651    0.0900
     41 H41        -3.8052    1.8377   49.9822 H       1  ZINC001079355651    0.4000
     42 H42        -6.7139    3.6693   52.9740 H       1  ZINC001079355651    0.1400
     43 H43        -8.4505    2.0802   53.6963 H       1  ZINC001079355651    0.1600
     44 H44        -6.8488   -0.9340   51.3384 H       1  ZINC001079355651    0.1700
     45 H45        -5.0589    0.5499   50.5278 H       1  ZINC001079355651    0.1500
@<TRIPOS>BOND
     1     1     2    1
     2     1    28    1
     3     1    29    1
     4     1    30    1
     5     2     3    1
     6     2    17    1
     7     2     4    1
     8     4     5    1
     9     4    31    1
    10     4    32    1
    11     5     6    1
    12     5    16    1
    13     6     7    1
    14     6    33    1
    15     6    34    1
    16     7     8    3
    17     8     9    1
    18     9    15   ar
    19     9    10   ar
    20    10    11   ar
    21    10    35    1
    22    11    12   ar
    23    11    36    1
    24    12    13   ar
    25    12    37    1
    26    13    14    1
    27    13    15   ar
    28    15    38    1
    29    16    17    1
    30    16    39    1
    31    16    40    1
    32    17    18    1
    33    17    19    1
    34    19    20   am
    35    19    41    1
    36    20    21    2
    37    20    22    1
    38    22    27   ar
    39    22    23   ar
    40    23    24   ar
    41    23    42    1
    42    24    25   ar
    43    24    43    1
    44    25    26   ar
    45    26    27   ar
    46    26    44    1
    47    27    45    1
@<TRIPOS>SUBSTRUCTURE
     1 ZINC001079355651        1 TEMP              0 ****  ****    0 ROOT


##########                                Name:    ZINC001326371752
##########                DOCK_Rotatable_Bonds:                   5
##########                         Heavy_Atoms:                  25
##########                    Molecular_Weight:             360.397
##########                DOCK_Rotatable_Bonds:                   5
##########                       Formal_Charge:           0.0199999
##########                     HBond_Acceptors:                  10
##########                        HBond_Donors:                   0
##########                         Heavy_Atoms:                  25
##########                          Grid_Score:          -29.911720
##########                     Grid_vdw_energy:          -29.353651
##########                      Grid_es_energy:           -0.558069
##########           Internal_energy_repulsive:           11.048805

@<TRIPOS>MOLECULE
ZINC001326371752
 41 44 1 0 0
SMALL
USER_CHARGES


@<TRIPOS>ATOM
      1 C1         -3.8164    2.6287   50.7460 C.3     1  ZINC001326371752    0.0300
      2 O2         -5.1237    3.1527   50.5043 O.3     1  ZINC001326371752   -0.3800
      3 C3         -6.1689    2.1857   50.6245 C.3     1  ZINC001326371752    0.0500
      4 C4         -6.2839    1.7375   52.0829 C.3     1  ZINC001326371752    0.1200
      5 N5         -7.2102    0.6063   52.1745 N.pl3   1  ZINC001326371752   -0.2800
      6 N6         -6.9323   -0.6253   51.9057 N.2     1  ZINC001326371752   -0.0800
      7 N7         -7.9719   -1.3679   52.0870 N.2     1  ZINC001326371752   -0.2500
      8 C8         -8.9764   -0.5985   52.4906 C.2     1  ZINC001326371752   -0.0400
      9 C9         -8.4977    0.6683   52.5588 C.2     1  ZINC001326371752    0.0000
     10 C10        -9.3024    1.8665   52.9851 C.3     1  ZINC001326371752   -0.0600
     11 C11       -10.7939    1.5189   52.8884 C.3     1  ZINC001326371752    0.1200
     12 N12       -11.0199    0.1889   53.4733 N.am    1  ZINC001326371752   -0.6100
     13 C13       -11.7792    0.0407   54.5769 C.2     1  ZINC001326371752    0.6100
     14 O14       -12.2870    1.0144   55.1014 O.2     1  ZINC001326371752   -0.5100
     15 C15       -11.9934   -1.2948   55.1462 C.2     1  ZINC001326371752   -0.3400
     16 C16       -11.0317   -1.8768   55.9800 C.2     1  ZINC001326371752    0.2400
     17 N17       -11.2577   -3.0792   56.4742 N.2     1  ZINC001326371752   -0.5100
     18 C18       -12.3690   -3.7510   56.2035 C.2     1  ZINC001326371752    0.2900
     19 S19       -12.8895   -5.3101   56.7183 S.3     1  ZINC001326371752    0.2500
     20 C20       -14.4243   -5.2536   55.8371 C.2     1  ZINC001326371752   -0.2100
     21 C21       -14.4362   -4.0810   55.2262 C.2     1  ZINC001326371752    0.0500
     22 N22       -13.3509   -3.2574   55.4042 N.am    1  ZINC001326371752   -0.4600
     23 C23       -13.1763   -2.0139   54.8677 C.2     1  ZINC001326371752    0.5500
     24 O24       -14.0337   -1.5298   54.1494 O.2     1  ZINC001326371752   -0.5000
     25 C25       -10.3954   -0.9800   52.8281 C.3     1  ZINC001326371752    0.2000
     26 H26        -3.0799    3.4244   50.6354 H       1  ZINC001326371752    0.0900
     27 H27        -3.7676    2.2263   51.7579 H       1  ZINC001326371752    0.0500
     28 H28        -3.6047    1.8355   50.0290 H       1  ZINC001326371752    0.0500
     29 H29        -7.1123    2.6288   50.3052 H       1  ZINC001326371752    0.0600
     30 H30        -5.9410    1.3244   49.9966 H       1  ZINC001326371752    0.0600
     31 H31        -5.3028    1.4342   52.4481 H       1  ZINC001326371752    0.1200
     32 H32        -6.6577    2.5632   52.6883 H       1  ZINC001326371752    0.1200
     33 H33        -9.0537    2.1266   54.0140 H       1  ZINC001326371752    0.0900
     34 H34        -9.0801    2.7082   52.3292 H       1  ZINC001326371752    0.1000
     35 H35       -11.3768    2.2606   53.4346 H       1  ZINC001326371752    0.1100
     36 H36       -11.0993    1.5132   51.8421 H       1  ZINC001326371752    0.0800
     37 H37       -10.1186   -1.3501   56.2150 H       1  ZINC001326371752    0.1900
     38 H38       -15.1887   -6.0159   55.8050 H       1  ZINC001326371752    0.2200
     39 H39       -15.2699   -3.7811   54.6087 H       1  ZINC001326371752    0.2000
     40 H40       -10.9340   -1.2315   51.9145 H       1  ZINC001326371752    0.1000
     41 H41       -10.4038   -1.8294   53.5110 H       1  ZINC001326371752    0.1000
@<TRIPOS>BOND
     1     1     2    1
     2     1    26    1
     3     1    27    1
     4     1    28    1
     5     2     3    1
     6     3     4    1
     7     3    29    1
     8     3    30    1
     9     4     5    1
    10     4    31    1
    11     4    32    1
    12     5     9    1
    13     5     6    1
    14     6     7    2
    15     7     8    1
    16     8    25    1
    17     8     9    2
    18     9    10    1
    19    10    11    1
    20    10    33    1
    21    10    34    1
    22    11    12    1
    23    11    35    1
    24    11    36    1
    25    12    13   am
    26    12    25    1
    27    13    14    2
    28    13    15    1
    29    15    23    1
    30    15    16    2
    31    16    17    1
    32    16    37    1
    33    17    18    2
    34    18    22    1
    35    18    19    1
    36    19    20    1
    37    20    21    2
    38    20    38    1
    39    21    22    1
    40    21    39    1
    41    22    23   am
    42    23    24    2
    43    25    40    1
    44    25    41    1
@<TRIPOS>SUBSTRUCTURE
     1 ZINC001326371752        1 TEMP              0 ****  ****    0 ROOT


##########                                Name:    ZINC000564088286
##########                DOCK_Rotatable_Bonds:                   6
##########                         Heavy_Atoms:                  25
##########                    Molecular_Weight:             398.934
##########                DOCK_Rotatable_Bonds:                   6
##########                       Formal_Charge:               -0.05
##########                     HBond_Acceptors:                   8
##########                        HBond_Donors:                   1
##########                         Heavy_Atoms:                  25
##########                          Grid_Score:          -29.910896
##########                     Grid_vdw_energy:          -28.507076
##########                      Grid_es_energy:           -1.403820
##########           Internal_energy_repulsive:           12.475008

@<TRIPOS>MOLECULE
ZINC000564088286
 44 46 1 0 0
SMALL
USER_CHARGES


@<TRIPOS>ATOM
      1 C1          2.8605   -1.7864   49.6671 C.3     1  ZINC000564088286   -0.1600
      2 C2          2.1251   -0.4464   49.5989 C.3     1  ZINC000564088286    0.1100
      3 N3          2.0328   -0.0105   48.2034 N.am    1  ZINC000564088286   -1.1200
      4 S4          1.9331    1.6032   47.8448 S.o2    1  ZINC000564088286    2.7000
      5 O5          3.0334    2.2268   48.4928 O.2     1  ZINC000564088286   -0.9600
      6 O6          1.7046    1.6899   46.4450 O.2     1  ZINC000564088286   -0.9600
      7 C7          0.4800    2.2222   48.6256 C.ar    1  ZINC000564088286   -0.6800
      8 C8          0.3456    2.1417   49.9991 C.ar    1  ZINC000564088286   -0.0200
      9 C9         -0.7945    2.6273   50.6117 C.ar    1  ZINC000564088286   -0.1300
     10 C10        -1.8001    3.1939   49.8509 C.ar    1  ZINC000564088286   -0.0100
     11 C11        -3.0432    3.7227   50.5186 C.3     1  ZINC000564088286   -0.1100
     12 C12        -4.1747    2.7479   50.3176 C.2     1  ZINC000564088286    0.5200
     13 O13        -3.9725    1.6910   49.7583 O.2     1  ZINC000564088286   -0.5200
     14 N14        -5.4114    3.0506   50.7596 N.am    1  ZINC000564088286   -0.6200
     15 C15        -6.5297    2.1137   50.5737 C.3     1  ZINC000564088286    0.1200
     16 C16        -7.0023    1.6385   51.9511 C.3     1  ZINC000564088286   -0.0700
     17 C17        -7.1141    2.8326   52.8752 C.2     1  ZINC000564088286   -0.1600
     18 C18        -6.5291    4.0275   52.6697 C.2     1  ZINC000564088286   -0.1200
     19 C19        -6.7804    4.9565   53.6750 C.2     1  ZINC000564088286   -0.1100
     20 C20        -7.5556    4.5323   54.6695 C.2     1  ZINC000564088286   -0.1500
     21 Cl21       -8.0289    5.4808   56.0443 Cl      1  ZINC000564088286   -0.0100
     22 S22        -8.0275    2.8650   54.3781 S.3     1  ZINC000564088286    0.1600
     23 C23        -5.6768    4.3231   51.4456 C.3     1  ZINC000564088286    0.1700
     24 C24        -1.6650    3.2755   48.4775 C.ar    1  ZINC000564088286   -0.1300
     25 C25        -0.5233    2.7934   47.8653 C.ar    1  ZINC000564088286   -0.0200
     26 H26         2.3130   -2.5311   49.0893 H       1  ZINC000564088286    0.0600
     27 H27         3.8631   -1.6719   49.2551 H       1  ZINC000564088286    0.0600
     28 H28         2.9292   -2.1107   50.7055 H       1  ZINC000564088286    0.0700
     29 H29         1.1225   -0.5609   50.0110 H       1  ZINC000564088286    0.0800
     30 H30         2.6725    0.2983   50.1768 H       1  ZINC000564088286    0.0700
     31 H31         2.0301   -0.6670   47.4893 H       1  ZINC000564088286    0.4200
     32 H32         1.1312    1.6991   50.5935 H       1  ZINC000564088286    0.1400
     33 H33        -0.8997    2.5638   51.6847 H       1  ZINC000564088286    0.1300
     34 H34        -2.8572    3.8486   51.5852 H       1  ZINC000564088286    0.1100
     35 H35        -3.3099    4.6844   50.0803 H       1  ZINC000564088286    0.1100
     36 H36        -7.3481    2.6179   50.0598 H       1  ZINC000564088286    0.0800
     37 H37        -6.1966    1.2583   49.9858 H       1  ZINC000564088286    0.1100
     38 H38        -7.9764    1.1583   51.8567 H       1  ZINC000564088286    0.0900
     39 H39        -6.2826    0.9284   52.3586 H       1  ZINC000564088286    0.0900
     40 H40        -6.3726    5.9562   53.6498 H       1  ZINC000564088286    0.1500
     41 H41        -4.7373    4.7828   51.7521 H       1  ZINC000564088286    0.1000
     42 H42        -6.2145    4.9926   50.7742 H       1  ZINC000564088286    0.0900
     43 H43        -2.4505    3.7184   47.8832 H       1  ZINC000564088286    0.1300
     44 H44        -0.4178    2.8572   46.7924 H       1  ZINC000564088286    0.1400
@<TRIPOS>BOND
     1     1     2    1
     2     1    26    1
     3     1    27    1
     4     1    28    1
     5     2     3    1
     6     2    29    1
     7     2    30    1
     8     3     4   am
     9     3    31    1
    10     4     5    2
    11     4     6    2
    12     4     7    1
    13     7    25   ar
    14     7     8   ar
    15     8     9   ar
    16     8    32    1
    17     9    10   ar
    18     9    33    1
    19    10    11    1
    20    10    24   ar
    21    11    12    1
    22    11    34    1
    23    11    35    1
    24    12    13    2
    25    12    14   am
    26    14    23    1
    27    14    15    1
    28    15    16    1
    29    15    36    1
    30    15    37    1
    31    16    17    1
    32    16    38    1
    33    16    39    1
    34    17    22    1
    35    17    18    2
    36    18    19    1
    37    18    23    1
    38    19    20    2
    39    19    40    1
    40    20    21    1
    41    20    22    1
    42    23    41    1
    43    23    42    1
    44    24    25   ar
    45    24    43    1
    46    25    44    1
@<TRIPOS>SUBSTRUCTURE
     1 ZINC000564088286        1 TEMP              0 ****  ****    0 ROOT


##########                                Name:    ZINC000816269301
##########                DOCK_Rotatable_Bonds:                   7
##########                         Heavy_Atoms:                  25
##########                    Molecular_Weight:             358.784
##########                DOCK_Rotatable_Bonds:                   7
##########                       Formal_Charge:           0.0100002
##########                     HBond_Acceptors:                   8
##########                        HBond_Donors:                   1
##########                         Heavy_Atoms:                  25
##########                          Grid_Score:          -29.902418
##########                     Grid_vdw_energy:          -29.874584
##########                      Grid_es_energy:           -0.027835
##########           Internal_energy_repulsive:            5.078972

@<TRIPOS>MOLECULE
ZINC000816269301
 40 42 1 0 0
SMALL
USER_CHARGES


@<TRIPOS>ATOM
      1 C1         -8.7762    1.4493   53.7795 C.3     1  ZINC000816269301    0.1000
      2 N2         -7.7748    1.1594   52.7503 N.pl3   1  ZINC000816269301   -0.4000
      3 N3         -7.6912   -0.0004   51.9667 N.2     1  ZINC000816269301    0.0000
      4 N4         -6.6862    0.0912   51.1690 N.2     1  ZINC000816269301   -0.2000
      5 C5         -6.0503    1.2726   51.3543 C.ar    1  ZINC000816269301   -0.0300
      6 C6         -4.9286    1.8557   50.7591 C.ar    1  ZINC000816269301    0.0500
      7 C7         -4.5080    3.1135   51.1744 C.ar    1  ZINC000816269301   -0.1400
      8 C8         -3.3244    3.7360   50.5502 C.2     1  ZINC000816269301    0.5200
      9 O9         -3.0145    4.8750   50.8375 O.2     1  ZINC000816269301   -0.5000
     10 O10        -2.5873    3.0412   49.6619 O.3     1  ZINC000816269301   -0.3500
     11 C11        -1.5663    3.7746   48.9354 C.3     1  ZINC000816269301    0.0500
     12 C12        -0.8424    2.8271   47.9768 C.3     1  ZINC000816269301    0.1200
     13 N13         0.3150    2.2376   48.6542 N.am    1  ZINC000816269301   -0.7200
     14 C14         1.0339    1.2740   48.0448 C.2     1  ZINC000816269301    0.5600
     15 O15         0.7227    0.8952   46.9324 O.2     1  ZINC000816269301   -0.5300
     16 C16         2.2004    0.6781   48.7289 C.ar    1  ZINC000816269301   -0.1300
     17 C17         2.9033   -0.3699   48.1315 C.ar    1  ZINC000816269301   -0.0700
     18 C18         3.9910   -0.9220   48.7748 C.ar    1  ZINC000816269301   -0.1200
     19 C19         4.3865   -0.4387   50.0112 C.ar    1  ZINC000816269301   -0.0100
     20 Cl20        5.7572   -1.1383   50.8147 Cl      1  ZINC000816269301   -0.0600
     21 C21         3.6931    0.6008   50.6088 C.ar    1  ZINC000816269301   -0.1200
     22 C22         2.6074    1.1647   49.9727 C.ar    1  ZINC000816269301   -0.0500
     23 C23        -5.2044    3.7939   52.1842 C.ar    1  ZINC000816269301   -0.0200
     24 C24        -6.2991    3.2302   52.7684 C.ar    1  ZINC000816269301   -0.1300
     25 C25        -6.7398    1.9730   52.3618 C.ar    1  ZINC000816269301    0.1100
     26 H26        -9.6298    1.9519   53.3247 H       1  ZINC000816269301    0.0900
     27 H27        -9.1058    0.5172   54.2386 H       1  ZINC000816269301    0.1000
     28 H28        -8.3382    2.0945   54.5412 H       1  ZINC000816269301    0.1000
     29 H29        -4.3917    1.3322   49.9817 H       1  ZINC000816269301    0.1600
     30 H30        -2.0322    4.5800   48.3675 H       1  ZINC000816269301    0.0800
     31 H31        -0.8497    4.1950   49.6410 H       1  ZINC000816269301    0.1000
     32 H32        -1.5234    2.0350   47.6655 H       1  ZINC000816269301    0.1000
     33 H33        -0.5068    3.3827   47.1012 H       1  ZINC000816269301    0.0900
     34 H34         0.5641    2.5407   49.5414 H       1  ZINC000816269301    0.4000
     35 H35         2.5956   -0.7478   47.1678 H       1  ZINC000816269301    0.1400
     36 H36         4.5353   -1.7329   48.3138 H       1  ZINC000816269301    0.1400
     37 H37         4.0062    0.9735   51.5730 H       1  ZINC000816269301    0.1400
     38 H38         2.0678    1.9754   50.4394 H       1  ZINC000816269301    0.1500
     39 H39        -4.8705    4.7708   52.5013 H       1  ZINC000816269301    0.1500
     40 H40        -6.8289    3.7617   53.5452 H       1  ZINC000816269301    0.1400
@<TRIPOS>BOND
     1     1     2    1
     2     1    26    1
     3     1    27    1
     4     1    28    1
     5     2    25    1
     6     2     3    1
     7     3     4    2
     8     4     5    1
     9     5    25   ar
    10     5     6   ar
    11     6     7   ar
    12     6    29    1
    13     7     8    1
    14     7    23   ar
    15     8     9    2
    16     8    10    1
    17    10    11    1
    18    11    12    1
    19    11    30    1
    20    11    31    1
    21    12    13    1
    22    12    32    1
    23    12    33    1
    24    13    14   am
    25    13    34    1
    26    14    15    2
    27    14    16    1
    28    16    22   ar
    29    16    17   ar
    30    17    18   ar
    31    17    35    1
    32    18    19   ar
    33    18    36    1
    34    19    20    1
    35    19    21   ar
    36    21    22   ar
    37    21    37    1
    38    22    38    1
    39    23    24   ar
    40    23    39    1
    41    24    25   ar
    42    24    40    1
@<TRIPOS>SUBSTRUCTURE
     1 ZINC000816269301        1 TEMP              0 ****  ****    0 ROOT


##########                                Name:    ZINC000541000201
##########                DOCK_Rotatable_Bonds:                  10
##########                         Heavy_Atoms:                  30
##########                    Molecular_Weight:             420.413
##########                DOCK_Rotatable_Bonds:                  10
##########                       Formal_Charge:               -0.03
##########                     HBond_Acceptors:                   9
##########                        HBond_Donors:                   1
##########                         Heavy_Atoms:                  30
##########                          Grid_Score:          -29.898109
##########                     Grid_vdw_energy:          -28.954628
##########                      Grid_es_energy:           -0.943482
##########           Internal_energy_repulsive:           21.527964

@<TRIPOS>MOLECULE
ZINC000541000201
 52 54 1 0 0
SMALL
USER_CHARGES


@<TRIPOS>ATOM
      1 C1         -6.8106   -1.2450   51.6173 C.3     1  ZINC000541000201    0.0400
      2 O2         -6.3531    0.1020   51.3262 O.3     1  ZINC000541000201   -0.3500
      3 C3         -6.9081    1.0999   52.0318 C.2     1  ZINC000541000201    0.4500
      4 O4         -7.7319    0.8541   52.8808 O.2     1  ZINC000541000201   -0.4900
      5 C5         -6.5038    2.5269   51.7649 C.3     1  ZINC000541000201    0.2100
      6 H6         -6.4858    3.0810   52.7034 H       1  ZINC000541000201    0.1400
      7 N7         -7.4681    3.1450   50.8514 N.am    1  ZINC000541000201   -0.7100
      8 C8         -7.7960    4.4442   50.9958 C.2     1  ZINC000541000201    0.5800
      9 O9         -7.2904    5.1038   51.8832 O.2     1  ZINC000541000201   -0.5300
     10 C10        -8.7689    5.0665   50.0765 C.ar    1  ZINC000541000201   -0.2300
     11 C11        -9.4806    4.2830   49.1565 C.ar    1  ZINC000541000201    0.0200
     12 C12       -10.3790    4.9106   48.3179 C.ar    1  ZINC000541000201   -0.2000
     13 C13       -10.5485    6.2884   48.4113 C.ar    1  ZINC000541000201    0.3500
     14 O14       -11.4293    6.9100   47.5905 O.3     1  ZINC000541000201   -0.2900
     15 C15       -12.2596    6.0764   46.7793 C.3     1  ZINC000541000201    0.0800
     16 C16       -13.3405    5.3819   47.6443 C.3     1  ZINC000541000201   -0.1400
     17 C17       -14.4489    5.0587   46.6118 C.3     1  ZINC000541000201   -0.1200
     18 C18       -14.4584    6.2817   45.6716 C.3     1  ZINC000541000201   -0.1200
     19 C19       -13.0663    6.9288   45.7781 C.3     1  ZINC000541000201   -0.1200
     20 N20        -9.8616    7.0010   49.2912 N.ar    1  ZINC000541000201   -0.5400
     21 C21        -8.9985    6.4426   50.1136 C.ar    1  ZINC000541000201    0.1800
     22 C22        -5.1326    2.5521   51.1403 C.ar    1  ZINC000541000201   -0.1300
     23 C23        -4.0279    2.8600   51.9128 C.ar    1  ZINC000541000201   -0.0700
     24 C24        -2.7699    2.8839   51.3425 C.ar    1  ZINC000541000201   -0.1300
     25 C25        -2.6154    2.5981   49.9938 C.ar    1  ZINC000541000201    0.1200
     26 O26        -1.3788    2.6205   49.4307 O.3     1  ZINC000541000201   -0.3200
     27 C27        -1.1630    3.5607   48.3764 C.3     1  ZINC000541000201    0.4100
     28 F28        -1.6438    3.0314   47.1739 F       1  ZINC000541000201   -0.2000
     29 F29        -1.8403    4.7500   48.6662 F       1  ZINC000541000201   -0.2000
     30 C30        -3.7254    2.2891   49.2211 C.ar    1  ZINC000541000201   -0.1900
     31 C31        -4.9807    2.2619   49.7971 C.ar    1  ZINC000541000201   -0.0500
     32 H32        -6.2832   -1.9538   50.9789 H       1  ZINC000541000201    0.1000
     33 H33        -6.6102   -1.4788   52.6629 H       1  ZINC000541000201    0.0600
     34 H34        -7.8820   -1.3135   51.4286 H       1  ZINC000541000201    0.0600
     35 H35        -7.8706    2.6191   50.1426 H       1  ZINC000541000201    0.4100
     36 H36        -9.3290    3.2149   49.1052 H       1  ZINC000541000201    0.1600
     37 H37       -10.9442    4.3386   47.5968 H       1  ZINC000541000201    0.1500
     38 H38       -11.6570    5.3369   46.2519 H       1  ZINC000541000201    0.1000
     39 H39       -12.9496    4.4674   48.0903 H       1  ZINC000541000201    0.0700
     40 H40       -13.7139    6.0587   48.4128 H       1  ZINC000541000201    0.0800
     41 H41       -14.2017    4.1533   46.0575 H       1  ZINC000541000201    0.0700
     42 H42       -15.4134    4.9518   47.1083 H       1  ZINC000541000201    0.0700
     43 H43       -14.6445    5.9628   44.6460 H       1  ZINC000541000201    0.0700
     44 H44       -15.2244    6.9898   45.9877 H       1  ZINC000541000201    0.0700
     45 H45       -13.1568    7.9509   46.1458 H       1  ZINC000541000201    0.0800
     46 H46       -12.5769    6.9240   44.8042 H       1  ZINC000541000201    0.0700
     47 H47        -8.4569    7.0565   50.8181 H       1  ZINC000541000201    0.1600
     48 H48        -4.1487    3.0824   52.9627 H       1  ZINC000541000201    0.1300
     49 H49        -1.9075    3.1251   51.9462 H       1  ZINC000541000201    0.1400
     50 H50        -0.0961    3.7636   48.2831 H       1  ZINC000541000201    0.1900
     51 H51        -3.6077    2.0666   48.1708 H       1  ZINC000541000201    0.1400
     52 H52        -5.8450    2.0210   49.1960 H       1  ZINC000541000201    0.1400
@<TRIPOS>BOND
     1     1     2    1
     2     1    32    1
     3     1    33    1
     4     1    34    1
     5     2     3    1
     6     3     4    2
     7     3     5    1
     8     5     6    1
     9     5     7    1
    10     5    22    1
    11     7     8   am
    12     7    35    1
    13     8     9    2
    14     8    10    1
    15    10    21   ar
    16    10    11   ar
    17    11    12   ar
    18    11    36    1
    19    12    13   ar
    20    12    37    1
    21    13    14    1
    22    13    20   ar
    23    14    15    1
    24    15    19    1
    25    15    16    1
    26    15    38    1
    27    16    17    1
    28    16    39    1
    29    16    40    1
    30    17    18    1
    31    17    41    1
    32    17    42    1
    33    18    19    1
    34    18    43    1
    35    18    44    1
    36    19    45    1
    37    19    46    1
    38    20    21   ar
    39    21    47    1
    40    22    31   ar
    41    22    23   ar
    42    23    24   ar
    43    23    48    1
    44    24    25   ar
    45    24    49    1
    46    25    26    1
    47    25    30   ar
    48    26    27    1
    49    27    28    1
    50    27    29    1
    51    27    50    1
    52    30    31   ar
    53    30    51    1
    54    31    52    1
@<TRIPOS>SUBSTRUCTURE
     1 ZINC000541000201        1 TEMP              0 ****  ****    0 ROOT


##########                                Name:    ZINC001077846158
##########                DOCK_Rotatable_Bonds:                   7
##########                         Heavy_Atoms:                  24
##########                    Molecular_Weight:             350.442
##########                DOCK_Rotatable_Bonds:                   7
##########                       Formal_Charge:          -0.0600002
##########                     HBond_Acceptors:                   8
##########                        HBond_Donors:                   2
##########                         Heavy_Atoms:                  24
##########                          Grid_Score:          -29.853289
##########                     Grid_vdw_energy:          -28.872583
##########                      Grid_es_energy:           -0.980705
##########           Internal_energy_repulsive:            7.152155

@<TRIPOS>MOLECULE
ZINC001077846158
 46 48 1 0 0
SMALL
USER_CHARGES


@<TRIPOS>ATOM
      1 C1          1.2901    2.0076   48.4739 C.3     1  ZINC001077846158   -0.0700
      2 C2         -0.0732    2.0132   47.8314 C.2     1  ZINC001077846158    0.0100
      3 C3         -1.1249    2.7581   48.2100 C.2     1  ZINC001077846158   -0.0500
      4 C4         -1.1611    3.7408   49.3520 C.3     1  ZINC001077846158    0.1300
      5 N5         -1.9681    3.1882   50.4481 N.3     1  ZINC001077846158   -0.5100
      6 C6         -1.8093    3.9949   51.6851 C.3     1  ZINC001077846158    0.0000
      7 C7         -3.0643    3.6232   52.5142 C.3     1  ZINC001077846158    0.1000
      8 H8         -2.9178    2.6754   53.0320 H       1  ZINC001077846158    0.0800
      9 O9         -3.3819    4.6611   53.4437 O.3     1  ZINC001077846158   -0.5600
     10 C10        -4.1648    3.4934   51.4363 C.3     1  ZINC001077846158    0.1400
     11 H11        -4.7377    4.4180   51.3671 H       1  ZINC001077846158    0.1100
     12 N12        -5.0511    2.3690   51.7473 N.am    1  ZINC001077846158   -0.7000
     13 C13        -6.3858    2.5087   51.6229 C.2     1  ZINC001077846158    0.6000
     14 O14        -6.8546    3.5686   51.2536 O.2     1  ZINC001077846158   -0.5300
     15 C15        -7.2766    1.3780   51.9338 C.2     1  ZINC001077846158    0.0100
     16 C16        -6.9037    0.0852   51.8019 C.2     1  ZINC001077846158   -0.2300
     17 S17        -8.2115   -0.9158   52.2599 S.3     1  ZINC001077846158    0.2300
     18 C18        -9.1802    0.4486   52.6011 C.2     1  ZINC001077846158    0.0300
     19 C19       -10.6009    0.3894   53.1004 C.3     1  ZINC001077846158   -0.0200
     20 C20       -11.5542    0.2556   51.9112 C.3     1  ZINC001077846158   -0.1500
     21 C21       -10.7665   -0.8181   54.0253 C.3     1  ZINC001077846158   -0.1500
     22 N22        -8.5266    1.5340   52.3778 N.2     1  ZINC001077846158   -0.4500
     23 C23        -3.4096    3.2330   50.1198 C.3     1  ZINC001077846158    0.0300
     24 O24        -2.1413    2.4617   47.3765 O.3     1  ZINC001077846158   -0.2100
     25 C25        -1.7006    1.5452   46.5045 C.2     1  ZINC001077846158    0.1800
     26 N26        -0.4543    1.2775   46.7723 N.2     1  ZINC001077846158   -0.4900
     27 H27         1.9194    2.7592   47.9972 H       1  ZINC001077846158    0.0800
     28 H28         1.1925    2.2357   49.5353 H       1  ZINC001077846158    0.0700
     29 H29         1.7443    1.0241   48.3538 H       1  ZINC001077846158    0.0700
     30 H30        -0.1465    3.9252   49.7050 H       1  ZINC001077846158    0.0600
     31 H31        -1.6033    4.6772   49.0116 H       1  ZINC001077846158    0.1100
     32 H32        -0.9002    3.7113   52.2152 H       1  ZINC001077846158    0.0900
     33 H33        -1.8037    5.0596   51.4519 H       1  ZINC001077846158    0.0600
     34 H34        -3.9135    4.3665   54.1958 H       1  ZINC001077846158    0.3900
     35 H35        -4.6773    1.5242   52.0428 H       1  ZINC001077846158    0.4100
     36 H36        -5.9378   -0.2588   51.4626 H       1  ZINC001077846158    0.1900
     37 H37       -10.8312    1.3023   53.6498 H       1  ZINC001077846158    0.1000
     38 H38       -11.4363    1.1158   51.2523 H       1  ZINC001077846158    0.0600
     39 H39       -11.3239   -0.6572   51.3618 H       1  ZINC001077846158    0.0600
     40 H40       -12.5818    0.2128   52.2725 H       1  ZINC001077846158    0.0700
     41 H41       -10.0873   -0.7228   54.8724 H       1  ZINC001077846158    0.0600
     42 H42       -11.7941   -0.8609   54.3864 H       1  ZINC001077846158    0.0700
     43 H43       -10.5361   -1.7309   53.4759 H       1  ZINC001077846158    0.0600
     44 H44        -3.6047    4.0402   49.4138 H       1  ZINC001077846158    0.0600
     45 H45        -3.7232    2.2798   49.6940 H       1  ZINC001077846158    0.0900
     46 H46        -2.2815    1.1041   45.7080 H       1  ZINC001077846158    0.2500
@<TRIPOS>BOND
     1     1     2    1
     2     1    27    1
     3     1    28    1
     4     1    29    1
     5     2    26    1
     6     2     3    2
     7     3     4    1
     8     3    24    1
     9     4     5    1
    10     4    30    1
    11     4    31    1
    12     5    23    1
    13     5     6    1
    14     6     7    1
    15     6    32    1
    16     6    33    1
    17     7     8    1
    18     7     9    1
    19     7    10    1
    20     9    34    1
    21    10    11    1
    22    10    12    1
    23    10    23    1
    24    12    13   am
    25    12    35    1
    26    13    14    2
    27    13    15    1
    28    15    22    1
    29    15    16    2
    30    16    17    1
    31    16    36    1
    32    17    18    1
    33    18    19    1
    34    18    22    2
    35    19    20    1
    36    19    21    1
    37    19    37    1
    38    20    38    1
    39    20    39    1
    40    20    40    1
    41    21    41    1
    42    21    42    1
    43    21    43    1
    44    23    44    1
    45    23    45    1
    46    24    25    1
    47    25    26    2
    48    25    46    1
@<TRIPOS>SUBSTRUCTURE
     1 ZINC001077846158        1 TEMP              0 ****  ****    0 ROOT


##########                                Name:    ZINC000788423111
##########                DOCK_Rotatable_Bonds:                   7
##########                         Heavy_Atoms:                  23
##########                    Molecular_Weight:             399.243
##########                DOCK_Rotatable_Bonds:                   7
##########                       Formal_Charge:         1.04308e-07
##########                     HBond_Acceptors:                   8
##########                        HBond_Donors:                   1
##########                         Heavy_Atoms:                  23
##########                          Grid_Score:          -29.832056
##########                     Grid_vdw_energy:          -28.859674
##########                      Grid_es_energy:           -0.972382
##########           Internal_energy_repulsive:            2.872222

@<TRIPOS>MOLECULE
ZINC000788423111
 35 37 1 0 0
SMALL
USER_CHARGES


@<TRIPOS>ATOM
      1 O1         -6.3062    0.6328   50.5270 O.3     1  ZINC000788423111   -0.5400
      2 C2         -6.4101    1.7186   51.4502 C.3     1  ZINC000788423111    0.1000
      3 H3         -7.1195    2.4531   51.0690 H       1  ZINC000788423111    0.1300
      4 C4         -5.0388    2.3753   51.6214 C.3     1  ZINC000788423111    0.0300
      5 O5         -4.6514    2.9963   50.3940 O.3     1  ZINC000788423111   -0.2900
      6 C6         -3.3415    2.9065   50.0438 C.ar    1  ZINC000788423111    0.1700
      7 C7         -2.3550    3.2809   50.9437 C.ar    1  ZINC000788423111   -0.2400
      8 C8         -1.0216    3.1888   50.5848 C.ar    1  ZINC000788423111    0.1500
      9 F9         -0.0597    3.5532   51.4607 F       1  ZINC000788423111   -0.1300
     10 C10        -0.6731    2.7227   49.3285 C.ar    1  ZINC000788423111   -0.1600
     11 C11        -1.6566    2.3495   48.4301 C.ar    1  ZINC000788423111   -0.0300
     12 Br12       -1.1773    1.7134   46.7150 Br      1  ZINC000788423111   -0.0200
     13 C13        -2.9892    2.4348   48.7872 C.ar    1  ZINC000788423111   -0.1300
     14 C14        -6.8965    1.1936   52.8024 C.3     1  ZINC000788423111    0.1000
     15 N15        -8.2011    0.5484   52.6352 N.pl3   1  ZINC000788423111   -0.1300
     16 N16        -8.3891   -0.7089   52.4330 N.2     1  ZINC000788423111   -0.0500
     17 N17        -9.6552   -0.9331   52.3321 N.2     1  ZINC000788423111   -0.2600
     18 C18       -10.2811    0.2449   52.4793 C.2     1  ZINC000788423111    0.2400
     19 C19       -11.7407    0.4816   52.4389 C.2     1  ZINC000788423111   -0.1300
     20 C20       -12.6797   -0.4729   52.2895 C.2     1  ZINC000788423111   -0.0800
     21 C21       -13.9788   -0.0079   52.2817 C.2     1  ZINC000788423111   -0.1400
     22 C22       -14.1074    1.3144   52.4232 C.2     1  ZINC000788423111   -0.2000
     23 S23       -12.5193    2.0519   52.5859 S.3     1  ZINC000788423111    0.1700
     24 N24        -9.3402    1.1500   52.6729 N.2     1  ZINC000788423111   -0.2900
     25 H25        -5.6878   -0.0583   50.8006 H       1  ZINC000788423111    0.3800
     26 H26        -5.0920    3.1278   52.4082 H       1  ZINC000788423111    0.0900
     27 H27        -4.3042    1.6172   51.8927 H       1  ZINC000788423111    0.0800
     28 H28        -2.6272    3.6444   51.9236 H       1  ZINC000788423111    0.1500
     29 H29         0.3678    2.6508   49.0495 H       1  ZINC000788423111    0.1500
     30 H30        -3.7564    2.1429   48.0854 H       1  ZINC000788423111    0.1500
     31 H31        -6.1801    0.4694   53.1901 H       1  ZINC000788423111    0.1300
     32 H32        -6.9889    2.0239   53.5026 H       1  ZINC000788423111    0.1300
     33 H33       -12.4350   -1.5194   52.1837 H       1  ZINC000788423111    0.1500
     34 H34       -14.8289   -0.6644   52.1693 H       1  ZINC000788423111    0.1500
     35 H35       -15.0455    1.8492   52.4397 H       1  ZINC000788423111    0.1700
@<TRIPOS>BOND
     1     1     2    1
     2     1    25    1
     3     2     3    1
     4     2     4    1
     5     2    14    1
     6     4     5    1
     7     4    26    1
     8     4    27    1
     9     5     6    1
    10     6    13   ar
    11     6     7   ar
    12     7     8   ar
    13     7    28    1
    14     8     9    1
    15     8    10   ar
    16    10    11   ar
    17    10    29    1
    18    11    12    1
    19    11    13   ar
    20    13    30    1
    21    14    15    1
    22    14    31    1
    23    14    32    1
    24    15    24    1
    25    15    16    1
    26    16    17    2
    27    17    18    1
    28    18    19    1
    29    18    24    2
    30    19    23    1
    31    19    20    2
    32    20    21    1
    33    20    33    1
    34    21    22    2
    35    21    34    1
    36    22    23    1
    37    22    35    1
@<TRIPOS>SUBSTRUCTURE
     1 ZINC000788423111        1 TEMP              0 ****  ****    0 ROOT


##########                                Name:    ZINC000505965769
##########                DOCK_Rotatable_Bonds:                   9
##########                         Heavy_Atoms:                  29
##########                    Molecular_Weight:              419.88
##########                DOCK_Rotatable_Bonds:                   9
##########                       Formal_Charge:               -0.02
##########                     HBond_Acceptors:                   7
##########                        HBond_Donors:                   1
##########                         Heavy_Atoms:                  29
##########                          Grid_Score:          -29.825211
##########                     Grid_vdw_energy:          -30.271042
##########                      Grid_es_energy:            0.445832
##########           Internal_energy_repulsive:           16.053139

@<TRIPOS>MOLECULE
ZINC000505965769
 52 54 1 0 0
SMALL
USER_CHARGES


@<TRIPOS>ATOM
      1 C1         -7.4122    3.1947   51.2534 C.3     1  ZINC000505965769    0.0200
      2 O2         -6.4146    2.2732   51.6983 O.3     1  ZINC000505965769   -0.3100
      3 C3         -5.1515    2.4653   51.2420 C.ar    1  ZINC000505965769    0.1800
      4 C4         -4.8149    2.0756   49.9499 C.ar    1  ZINC000505965769   -0.2200
      5 C5         -3.5460    2.2654   49.4819 C.ar    1  ZINC000505965769   -0.0200
      6 C6         -2.5769    2.8543   50.3035 C.ar    1  ZINC000505965769   -0.2100
      7 C7         -1.2127    3.0597   49.8027 C.2     1  ZINC000505965769    0.3900
      8 O8         -0.3151    2.3318   50.1716 O.2     1  ZINC000505965769   -0.4400
      9 C9         -0.9270    4.1749   48.8302 C.3     1  ZINC000505965769   -0.1500
     10 C10        -0.3991    3.5864   47.5202 C.3     1  ZINC000505965769   -0.1300
     11 C11         1.0937    3.4041   47.6169 C.2     1  ZINC000505965769    0.5200
     12 O12         1.8275    4.3677   47.5550 O.2     1  ZINC000505965769   -0.5300
     13 N13         1.6132    2.1702   47.7723 N.am    1  ZINC000505965769   -0.7200
     14 C14         3.0642    1.9932   47.8681 C.3     1  ZINC000505965769    0.1900
     15 H15         3.5142    2.8967   48.2795 H       1  ZINC000505965769    0.1100
     16 C16         3.3693    0.8248   48.7697 C.ar    1  ZINC000505965769   -0.1000
     17 C17         2.5647   -0.2990   48.7401 C.ar    1  ZINC000505965769   -0.0900
     18 C18         2.8435   -1.3710   49.5664 C.ar    1  ZINC000505965769   -0.1500
     19 C19         3.9293   -1.3195   50.4239 C.ar    1  ZINC000505965769    0.1000
     20 F20         4.2031   -2.3671   51.2319 F       1  ZINC000505965769   -0.1400
     21 C21         4.7348   -0.1936   50.4524 C.ar    1  ZINC000505965769   -0.1500
     22 C22         4.4569    0.8753   49.6216 C.ar    1  ZINC000505965769   -0.0600
     23 C23         3.6385    1.7261   46.4753 C.3     1  ZINC000505965769    0.0800
     24 H24         3.4889    2.5934   45.8323 H       1  ZINC000505965769    0.0700
     25 C25         5.1462    1.3822   46.5721 C.3     1  ZINC000505965769   -0.1500
     26 C26         5.3443    0.5562   45.2719 C.3     1  ZINC000505965769   -0.1600
     27 C27         3.9904   -0.1733   45.1378 C.3     1  ZINC000505965769    0.0500
     28 O28         3.0230    0.5642   45.8967 O.3     1  ZINC000505965769   -0.3700
     29 C29        -2.9150    3.2475   51.6063 C.ar    1  ZINC000505965769    0.0500
     30 Cl30       -1.7218    3.9785   52.6336 Cl      1  ZINC000505965769   -0.0200
     31 C31        -4.1999    3.0558   52.0659 C.ar    1  ZINC000505965769   -0.1600
     32 H32        -7.4843    3.1553   50.1665 H       1  ZINC000505965769    0.0600
     33 H33        -8.3742    2.9281   51.6912 H       1  ZINC000505965769    0.1100
     34 H34        -7.1390    4.2034   51.5631 H       1  ZINC000505965769    0.0600
     35 H35        -5.5601    1.6209   49.3141 H       1  ZINC000505965769    0.1400
     36 H36        -3.2898    1.9607   48.4779 H       1  ZINC000505965769    0.1500
     37 H37        -1.8440    4.7308   48.6352 H       1  ZINC000505965769    0.1100
     38 H38        -0.1793    4.8447   49.2549 H       1  ZINC000505965769    0.1100
     39 H39        -0.8721    2.6212   47.3388 H       1  ZINC000505965769    0.1000
     40 H40        -0.6299    4.2642   46.6983 H       1  ZINC000505965769    0.1000
     41 H41         1.0262    1.3994   47.8207 H       1  ZINC000505965769    0.4000
     42 H42         1.7177   -0.3390   48.0712 H       1  ZINC000505965769    0.1300
     43 H43         2.2144   -2.2486   49.5437 H       1  ZINC000505965769    0.1400
     44 H44         5.5819   -0.1522   51.1210 H       1  ZINC000505965769    0.1400
     45 H45         5.0852    1.7535   49.6434 H       1  ZINC000505965769    0.1400
     46 H46         5.7567    2.2851   46.5608 H       1  ZINC000505965769    0.0700
     47 H47         5.3557    0.7796   47.4560 H       1  ZINC000505965769    0.1000
     48 H48         5.5179    1.2119   44.4185 H       1  ZINC000505965769    0.0700
     49 H49         6.1599   -0.1576   45.3862 H       1  ZINC000505965769    0.0800
     50 H50         3.6900   -0.2057   44.0904 H       1  ZINC000505965769    0.0700
     51 H51         4.0758   -1.1864   45.5307 H       1  ZINC000505965769    0.0700
     52 H52        -4.4656    3.3571   53.0684 H       1  ZINC000505965769    0.1500
@<TRIPOS>BOND
     1     1     2    1
     2     1    32    1
     3     1    33    1
     4     1    34    1
     5     2     3    1
     6     3    31   ar
     7     3     4   ar
     8     4     5   ar
     9     4    35    1
    10     5     6   ar
    11     5    36    1
    12     6     7    1
    13     6    29   ar
    14     7     8    2
    15     7     9    1
    16     9    10    1
    17     9    37    1
    18     9    38    1
    19    10    11    1
    20    10    39    1
    21    10    40    1
    22    11    12    2
    23    11    13   am
    24    13    14    1
    25    13    41    1
    26    14    15    1
    27    14    16    1
    28    14    23    1
    29    16    22   ar
    30    16    17   ar
    31    17    18   ar
    32    17    42    1
    33    18    19   ar
    34    18    43    1
    35    19    20    1
    36    19    21   ar
    37    21    22   ar
    38    21    44    1
    39    22    45    1
    40    23    24    1
    41    23    28    1
    42    23    25    1
    43    25    26    1
    44    25    46    1
    45    25    47    1
    46    26    27    1
    47    26    48    1
    48    26    49    1
    49    27    28    1
    50    27    50    1
    51    27    51    1
    52    29    30    1
    53    29    31   ar
    54    31    52    1
@<TRIPOS>SUBSTRUCTURE
     1 ZINC000505965769        1 TEMP              0 ****  ****    0 ROOT


##########                                Name:    ZINC000062882109
##########                DOCK_Rotatable_Bonds:                   8
##########                         Heavy_Atoms:                  31
##########                    Molecular_Weight:             424.497
##########                DOCK_Rotatable_Bonds:                   8
##########                       Formal_Charge:           0.0299993
##########                     HBond_Acceptors:                   7
##########                        HBond_Donors:                   1
##########                         Heavy_Atoms:                  31
##########                          Grid_Score:          -29.824352
##########                     Grid_vdw_energy:          -29.121662
##########                      Grid_es_energy:           -0.702690
##########           Internal_energy_repulsive:          190.771500

@<TRIPOS>MOLECULE
ZINC000062882109
 59 61 1 0 0
SMALL
USER_CHARGES


@<TRIPOS>ATOM
      1 C1        -13.4725    0.5766   62.8436 C.3     1  ZINC000062882109   -0.2000
      2 C2        -12.6555    1.1738   63.9603 C.2     1  ZINC000062882109    0.3900
      3 O3        -13.2069    1.7471   64.8755 O.2     1  ZINC000062882109   -0.4500
      4 C4        -11.1881    1.0610   63.9402 C.ar    1  ZINC000062882109   -0.1300
      5 C5        -10.4298    1.5740   64.9973 C.ar    1  ZINC000062882109   -0.1100
      6 C6         -9.0549    1.4659   64.9741 C.ar    1  ZINC000062882109   -0.0900
      7 C7         -8.4225    0.8517   63.9086 C.ar    1  ZINC000062882109   -0.1800
      8 C8         -9.1662    0.3391   62.8534 C.ar    1  ZINC000062882109    0.1200
      9 O9         -8.5379   -0.2632   61.8094 O.3     1  ZINC000062882109   -0.2800
     10 C10        -8.5513    0.4273   60.5585 C.3     1  ZINC000062882109    0.0700
     11 H11        -7.5505    0.4164   60.1266 H       1  ZINC000062882109    0.1000
     12 C12        -8.9956    1.8746   60.7796 C.3     1  ZINC000062882109   -0.1800
     13 C13        -9.5116   -0.2548   59.6184 C.2     1  ZINC000062882109    0.5200
     14 O14        -9.7919    0.2619   58.5575 O.2     1  ZINC000062882109   -0.4900
     15 N15       -10.0589   -1.4392   59.9567 N.am    1  ZINC000062882109   -0.6600
     16 C16       -10.9516   -2.0734   59.0828 C.ar    1  ZINC000062882109    0.1400
     17 C17       -10.4714   -2.7570   57.9740 C.ar    1  ZINC000062882109   -0.1000
     18 C18       -11.3487   -3.3823   57.1089 C.ar    1  ZINC000062882109   -0.1100
     19 C19       -12.7145   -3.3300   57.3437 C.ar    1  ZINC000062882109    0.0800
     20 O20       -13.5682   -3.9422   56.4801 O.3     1  ZINC000062882109   -0.3100
     21 C21       -14.8818   -4.2532   56.9506 C.3     1  ZINC000062882109    0.0500
     22 C22       -15.4813   -3.0019   57.6078 C.3     1  ZINC000062882109    0.0400
     23 N23       -14.5800   -2.5978   58.7003 N.am    1  ZINC000062882109   -0.5500
     24 C24       -15.0650   -2.1949   59.8915 C.2     1  ZINC000062882109    0.5300
     25 O25       -14.3036   -1.8666   60.7767 O.2     1  ZINC000062882109   -0.5100
     26 C26       -16.5535   -2.1522   60.1235 C.3     1  ZINC000062882109   -0.0800
     27 C27       -16.8394   -1.5146   61.4846 C.3     1  ZINC000062882109   -0.1300
     28 C28       -17.2177   -1.3231   59.0224 C.3     1  ZINC000062882109   -0.1600
     29 C29       -17.1145   -3.5754   60.0989 C.3     1  ZINC000062882109   -0.1500
     30 C30       -13.1964   -2.6474   58.4580 C.ar    1  ZINC000062882109    0.1000
     31 C31       -12.3176   -2.0237   59.3276 C.ar    1  ZINC000062882109   -0.1400
     32 C32       -10.5467    0.4354   62.8671 C.ar    1  ZINC000062882109   -0.0900
     33 H33       -14.5308    0.7588   63.0303 H       1  ZINC000062882109    0.0900
     34 H34       -13.1860    1.0365   61.8978 H       1  ZINC000062882109    0.1000
     35 H35       -13.2916   -0.4971   62.7952 H       1  ZINC000062882109    0.1000
     36 H36       -10.9202    2.0546   65.8308 H       1  ZINC000062882109    0.1400
     37 H37        -8.4700    1.8627   65.7906 H       1  ZINC000062882109    0.1300
     38 H38        -7.3457    0.7704   63.8968 H       1  ZINC000062882109    0.1300
     39 H39        -8.3010    2.3679   61.4596 H       1  ZINC000062882109    0.0800
     40 H40        -9.0057    2.4014   59.8253 H       1  ZINC000062882109    0.0800
     41 H41        -9.9963    1.8856   61.2114 H       1  ZINC000062882109    0.0800
     42 H42        -9.8346   -1.8524   60.8051 H       1  ZINC000062882109    0.4100
     43 H43        -9.4086   -2.8000   57.7870 H       1  ZINC000062882109    0.1400
     44 H44       -10.9701   -3.9125   56.2475 H       1  ZINC000062882109    0.1400
     45 H45       -15.5068   -4.5606   56.1121 H       1  ZINC000062882109    0.1300
     46 H46       -14.8265   -5.0592   57.6822 H       1  ZINC000062882109    0.0700
     47 H47       -15.5568   -2.1990   56.8744 H       1  ZINC000062882109    0.0900
     48 H48       -16.4687   -3.2317   58.0087 H       1  ZINC000062882109    0.1300
     49 H49       -16.4398   -0.5007   61.5021 H       1  ZINC000062882109    0.0600
     50 H50       -17.9160   -1.4837   61.6524 H       1  ZINC000062882109    0.0700
     51 H51       -16.3663   -2.1053   62.2691 H       1  ZINC000062882109    0.0700
     52 H52       -17.0140   -1.7773   58.0527 H       1  ZINC000062882109    0.0700
     53 H53       -18.2942   -1.2922   59.1902 H       1  ZINC000062882109    0.0800
     54 H54       -16.8180   -0.3092   59.0399 H       1  ZINC000062882109    0.0600
     55 H55       -16.7960   -4.1070   60.9957 H       1  ZINC000062882109    0.0700
     56 H56       -18.2033   -3.5362   60.0672 H       1  ZINC000062882109    0.0800
     57 H57       -16.7438   -4.0968   59.2164 H       1  ZINC000062882109    0.0700
     58 H58       -12.6939   -1.4962   60.1916 H       1  ZINC000062882109    0.1800
     59 H59       -11.1259    0.0368   62.0473 H       1  ZINC000062882109    0.1400
@<TRIPOS>BOND
     1     1     2    1
     2     1    33    1
     3     1    34    1
     4     1    35    1
     5     2     3    2
     6     2     4    1
     7     4    32   ar
     8     4     5   ar
     9     5     6   ar
    10     5    36    1
    11     6     7   ar
    12     6    37    1
    13     7     8   ar
    14     7    38    1
    15     8     9    1
    16     8    32   ar
    17     9    10    1
    18    10    11    1
    19    10    12    1
    20    10    13    1
    21    12    39    1
    22    12    40    1
    23    12    41    1
    24    13    14    2
    25    13    15   am
    26    15    16    1
    27    15    42    1
    28    16    31   ar
    29    16    17   ar
    30    17    18   ar
    31    17    43    1
    32    18    19   ar
    33    18    44    1
    34    19    30   ar
    35    19    20    1
    36    20    21    1
    37    21    22    1
    38    21    45    1
    39    21    46    1
    40    22    23    1
    41    22    47    1
    42    22    48    1
    43    23    24   am
    44    23    30    1
    45    24    25    2
    46    24    26    1
    47    26    27    1
    48    26    28    1
    49    26    29    1
    50    27    49    1
    51    27    50    1
    52    27    51    1
    53    28    52    1
    54    28    53    1
    55    28    54    1
    56    29    55    1
    57    29    56    1
    58    29    57    1
    59    30    31   ar
    60    31    58    1
    61    32    59    1
@<TRIPOS>SUBSTRUCTURE
     1 ZINC000062882109        1 TEMP              0 ****  ****    0 ROOT


##########                                Name:    ZINC000572148596
##########                DOCK_Rotatable_Bonds:                   4
##########                         Heavy_Atoms:                  26
##########                    Molecular_Weight:             371.463
##########                DOCK_Rotatable_Bonds:                   4
##########                       Formal_Charge:          -0.0199999
##########                     HBond_Acceptors:                   8
##########                        HBond_Donors:                   0
##########                         Heavy_Atoms:                  26
##########                          Grid_Score:          -29.821518
##########                     Grid_vdw_energy:          -29.686171
##########                      Grid_es_energy:           -0.135348
##########           Internal_energy_repulsive:            7.019161

@<TRIPOS>MOLECULE
ZINC000572148596
 47 50 1 0 0
SMALL
USER_CHARGES


@<TRIPOS>ATOM
      1 C1        -11.4360    1.8302   52.8961 C.3     1  ZINC000572148596   -0.1400
      2 C2        -10.3835    0.7197   52.9108 C.3     1  ZINC000572148596    0.0800
      3 H3        -10.4646    0.1302   51.9975 H       1  ZINC000572148596    0.1200
      4 C4         -9.0088    1.3316   52.9933 C.2     1  ZINC000572148596    0.1800
      5 N5         -8.4691    1.8672   54.0483 N.2     1  ZINC000572148596   -0.3500
      6 O6         -7.3536    2.2711   53.7962 O.3     1  ZINC000572148596    0.0900
      7 C7         -7.0629    2.0232   52.5094 C.2     1  ZINC000572148596    0.2300
      8 C8         -5.8069    2.3566   51.8090 C.ar    1  ZINC000572148596   -0.1200
      9 C9         -4.8655    3.2091   52.4038 C.ar    1  ZINC000572148596   -0.0100
     10 C10        -3.7141    3.4910   51.7178 C.ar    1  ZINC000572148596   -0.1900
     11 C11        -3.5127    2.9279   50.4598 C.ar    1  ZINC000572148596    0.3400
     12 N12        -2.3482    3.2108   49.7628 N.3     1  ZINC000572148596   -0.4700
     13 C13        -2.2595    4.6432   49.4444 C.3     1  ZINC000572148596    0.0300
     14 C14        -0.9344    4.9205   48.7294 C.3     1  ZINC000572148596    0.0900
     15 H15        -0.8893    5.9707   48.4407 H       1  ZINC000572148596    0.1100
     16 C16         0.2300    4.5985   49.6684 C.3     1  ZINC000572148596   -0.1800
     17 O17        -0.8478    4.0999   47.5614 O.3     1  ZINC000572148596   -0.3700
     18 C18        -0.9301    2.6986   47.8348 C.3     1  ZINC000572148596    0.0800
     19 H19        -0.1006    2.4039   48.4775 H       1  ZINC000572148596    0.0700
     20 C20        -0.8615    1.9169   46.5214 C.3     1  ZINC000572148596   -0.1400
     21 C21        -2.2552    2.3988   48.5407 C.3     1  ZINC000572148596    0.0300
     22 N22        -4.4190    2.1247   49.9200 N.ar    1  ZINC000572148596   -0.5200
     23 C23        -5.5366    1.8233   50.5481 C.ar    1  ZINC000572148596    0.1900
     24 N24        -8.1183    1.4169   51.9932 N.2     1  ZINC000572148596   -0.4700
     25 C25       -10.6096   -0.1709   54.1052 C.2     1  ZINC000572148596    0.0400
     26 N26       -10.6290   -1.4606   54.0716 N.2     1  ZINC000572148596   -0.4500
     27 C27       -10.8396   -2.0883   55.2109 C.2     1  ZINC000572148596    0.0400
     28 C28       -11.0072   -1.2832   56.2644 C.2     1  ZINC000572148596   -0.2500
     29 S29       -10.8703    0.3811   55.7023 S.3     1  ZINC000572148596    0.1400
     30 H30       -11.3550    2.4197   53.8094 H       1  ZINC000572148596    0.0800
     31 H31       -11.2725    2.4743   52.0322 H       1  ZINC000572148596    0.0700
     32 H32       -12.4304    1.3876   52.8363 H       1  ZINC000572148596    0.0800
     33 H33        -5.0445    3.6339   53.3804 H       1  ZINC000572148596    0.1500
     34 H34        -2.9694    4.1443   52.1480 H       1  ZINC000572148596    0.1500
     35 H35        -3.0889    4.9239   48.7952 H       1  ZINC000572148596    0.0600
     36 H36        -2.3045    5.2243   50.3655 H       1  ZINC000572148596    0.1000
     37 H37         0.1852    3.5480   49.9556 H       1  ZINC000572148596    0.0700
     38 H38         1.1730    4.7961   49.1589 H       1  ZINC000572148596    0.0600
     39 H39         0.1609    5.2221   50.5599 H       1  ZINC000572148596    0.0700
     40 H40         0.0806    2.1338   46.0182 H       1  ZINC000572148596    0.0700
     41 H41        -0.9243    0.8489   46.7305 H       1  ZINC000572148596    0.0700
     42 H42        -1.6922    2.2109   45.8797 H       1  ZINC000572148596    0.0600
     43 H43        -2.2972    1.3415   48.8022 H       1  ZINC000572148596    0.1000
     44 H44        -3.0846    2.6436   47.8771 H       1  ZINC000572148596    0.0600
     45 H45        -6.2539    1.1657   50.0797 H       1  ZINC000572148596    0.1700
     46 H46       -10.8742   -3.1651   55.2872 H       1  ZINC000572148596    0.1800
     47 H47       -11.1903   -1.5973   57.2814 H       1  ZINC000572148596    0.1800
@<TRIPOS>BOND
     1     1     2    1
     2     1    30    1
     3     1    31    1
     4     1    32    1
     5     2     3    1
     6     2     4    1
     7     2    25    1
     8     4    24    1
     9     4     5    2
    10     5     6    1
    11     6     7    1
    12     7     8    1
    13     7    24    2
    14     8    23   ar
    15     8     9   ar
    16     9    10   ar
    17     9    33    1
    18    10    11   ar
    19    10    34    1
    20    11    12    1
    21    11    22   ar
    22    12    21    1
    23    12    13    1
    24    13    14    1
    25    13    35    1
    26    13    36    1
    27    14    15    1
    28    14    16    1
    29    14    17    1
    30    16    37    1
    31    16    38    1
    32    16    39    1
    33    17    18    1
    34    18    19    1
    35    18    20    1
    36    18    21    1
    37    20    40    1
    38    20    41    1
    39    20    42    1
    40    21    43    1
    41    21    44    1
    42    22    23   ar
    43    23    45    1
    44    25    29    1
    45    25    26    2
    46    26    27    1
    47    27    28    2
    48    27    46    1
    49    28    29    1
    50    28    47    1
@<TRIPOS>SUBSTRUCTURE
     1 ZINC000572148596        1 TEMP              0 ****  ****    0 ROOT


##########                                Name:    ZINC000417533280
##########                DOCK_Rotatable_Bonds:                   9
##########                         Heavy_Atoms:                  26
##########                    Molecular_Weight:             367.439
##########                DOCK_Rotatable_Bonds:                   9
##########                       Formal_Charge:         -0.00999999
##########                     HBond_Acceptors:                   7
##########                        HBond_Donors:                   2
##########                         Heavy_Atoms:                  26
##########                          Grid_Score:          -29.815416
##########                     Grid_vdw_energy:          -29.732086
##########                      Grid_es_energy:           -0.083330
##########           Internal_energy_repulsive:           17.054657

@<TRIPOS>MOLECULE
ZINC000417533280
 53 54 1 0 0
SMALL
USER_CHARGES


@<TRIPOS>ATOM
      1 C1          5.6302   -0.1305   50.7633 C.3     1  ZINC000417533280   -0.1600
      2 C2          4.7806   -0.2935   49.5014 C.3     1  ZINC000417533280   -0.1200
      3 C3          3.4334   -0.9177   49.8707 C.3     1  ZINC000417533280   -0.1200
      4 C4          2.6795   -1.2957   48.5940 C.3     1  ZINC000417533280   -0.1300
      5 C5          2.4032   -0.0349   47.7726 C.3     1  ZINC000417533280    0.1200
      6 N6          1.6317    0.9140   48.5791 N.am    1  ZINC000417533280   -0.7300
      7 C7          0.9509    1.9107   47.9794 C.2     1  ZINC000417533280    0.5200
      8 O8          0.9759    2.0211   46.7718 O.2     1  ZINC000417533280   -0.5400
      9 C9          0.1587    2.8879   48.8092 C.3     1  ZINC000417533280   -0.1100
     10 C10        -1.2804    2.9467   48.2919 C.3     1  ZINC000417533280   -0.1300
     11 C11        -2.0736    3.9663   49.1154 C.3     1  ZINC000417533280    0.1300
     12 N12        -1.9575    3.6180   50.5380 N.am    1  ZINC000417533280   -0.6200
     13 C13        -3.0591    3.4577   51.2979 C.2     1  ZINC000417533280    0.7100
     14 O14        -2.9497    3.1695   52.4740 O.2     1  ZINC000417533280   -0.5600
     15 N15        -4.2819    3.6170   50.7540 N.am    1  ZINC000417533280   -0.6800
     16 C16        -5.4266    3.4505   51.5435 C.ar    1  ZINC000417533280    0.1900
     17 C17        -5.8964    4.5032   52.3170 C.ar    1  ZINC000417533280   -0.1100
     18 C18        -7.0261    4.3383   53.0953 C.ar    1  ZINC000417533280   -0.1100
     19 C19        -7.6902    3.1243   53.1049 C.ar    1  ZINC000417533280    0.0500
     20 F20        -8.7949    2.9655   53.8663 F       1  ZINC000417533280   -0.1300
     21 C21        -7.2234    2.0705   52.3331 C.ar    1  ZINC000417533280    0.0900
     22 F22        -7.8729    0.8860   52.3435 F       1  ZINC000417533280   -0.1200
     23 C23        -6.0961    2.2341   51.5490 C.ar    1  ZINC000417533280   -0.1300
     24 C24        -5.5885    1.0899   50.7099 C.3     1  ZINC000417533280   -0.1200
     25 C25        -0.6178    3.4472   51.1165 C.3     1  ZINC000417533280    0.1100
     26 C26         0.1591    2.4335   50.2705 C.3     1  ZINC000417533280   -0.1200
     27 H27         5.1110    0.5173   51.4697 H       1  ZINC000417533280    0.0500
     28 H28         5.7949   -1.1068   51.2191 H       1  ZINC000417533280    0.0500
     29 H29         6.5900    0.3142   50.5003 H       1  ZINC000417533280    0.0500
     30 H30         4.6160    0.6829   49.0456 H       1  ZINC000417533280    0.0600
     31 H31         5.2998   -0.9413   48.7950 H       1  ZINC000417533280    0.0600
     32 H32         3.5997   -1.8111   50.4724 H       1  ZINC000417533280    0.0700
     33 H33         2.8445   -0.1996   50.4412 H       1  ZINC000417533280    0.0700
     34 H34         3.2837   -1.9870   48.0065 H       1  ZINC000417533280    0.0700
     35 H35         1.7351   -1.7720   48.8574 H       1  ZINC000417533280    0.0700
     36 H36         3.3483    0.4220   47.4792 H       1  ZINC000417533280    0.0700
     37 H37         1.8352   -0.2996   46.8807 H       1  ZINC000417533280    0.0700
     38 H38         1.6107    0.8250   49.5448 H       1  ZINC000417533280    0.4000
     39 H39         0.6113    3.8767   48.7363 H       1  ZINC000417533280    0.1000
     40 H40        -1.2784    3.2478   47.2443 H       1  ZINC000417533280    0.0800
     41 H41        -1.7419    1.9638   48.3874 H       1  ZINC000417533280    0.0800
     42 H42        -1.6685    4.9645   48.9493 H       1  ZINC000417533280    0.0700
     43 H43        -3.1217    3.9408   48.8172 H       1  ZINC000417533280    0.1000
     44 H44        -4.3691    3.8470   49.8157 H       1  ZINC000417533280    0.4100
     45 H45        -5.3786    5.4510   52.3105 H       1  ZINC000417533280    0.1700
     46 H46        -7.3908    5.1575   53.6971 H       1  ZINC000417533280    0.1500
     47 H47        -6.0553    1.1261   49.7256 H       1  ZINC000417533280    0.0800
     48 H48        -4.5068    1.1703   50.6022 H       1  ZINC000417533280    0.0700
     49 H49        -5.8362    0.1458   51.1950 H       1  ZINC000417533280    0.0800
     50 H50        -0.0940    4.4031   51.1137 H       1  ZINC000417533280    0.0800
     51 H51        -0.7054    3.0792   52.1388 H       1  ZINC000417533280    0.0800
     52 H52        -0.3160    1.4554   50.3476 H       1  ZINC000417533280    0.0800
     53 H53         1.1856    2.3693   50.6313 H       1  ZINC000417533280    0.0900
@<TRIPOS>BOND
     1     1     2    1
     2     1    27    1
     3     1    28    1
     4     1    29    1
     5     2     3    1
     6     2    30    1
     7     2    31    1
     8     3     4    1
     9     3    32    1
    10     3    33    1
    11     4     5    1
    12     4    34    1
    13     4    35    1
    14     5     6    1
    15     5    36    1
    16     5    37    1
    17     6     7   am
    18     6    38    1
    19     7     8    2
    20     7     9    1
    21     9    26    1
    22     9    10    1
    23     9    39    1
    24    10    11    1
    25    10    40    1
    26    10    41    1
    27    11    12    1
    28    11    42    1
    29    11    43    1
    30    12    13   am
    31    12    25    1
    32    13    14    2
    33    13    15   am
    34    15    16    1
    35    15    44    1
    36    16    23   ar
    37    16    17   ar
    38    17    18   ar
    39    17    45    1
    40    18    19   ar
    41    18    46    1
    42    19    20    1
    43    19    21   ar
    44    21    22    1
    45    21    23   ar
    46    23    24    1
    47    24    47    1
    48    24    48    1
    49    24    49    1
    50    25    26    1
    51    25    50    1
    52    25    51    1
    53    26    52    1
    54    26    53    1
@<TRIPOS>SUBSTRUCTURE
     1 ZINC000417533280        1 TEMP              0 ****  ****    0 ROOT


##########                                Name:    ZINC000989658617
##########                DOCK_Rotatable_Bonds:                   6
##########                         Heavy_Atoms:                  24
##########                    Molecular_Weight:             334.418
##########                DOCK_Rotatable_Bonds:                   6
##########                       Formal_Charge:          -0.0100001
##########                     HBond_Acceptors:                   7
##########                        HBond_Donors:                   2
##########                         Heavy_Atoms:                  24
##########                          Grid_Score:          -29.811798
##########                     Grid_vdw_energy:          -28.779816
##########                      Grid_es_energy:           -1.031983
##########           Internal_energy_repulsive:            9.777015

@<TRIPOS>MOLECULE
ZINC000989658617
 50 52 1 0 0
SMALL
USER_CHARGES


@<TRIPOS>ATOM
      1 C1         -0.1703    1.3725   61.8278 C.3     1  ZINC000989658617    0.0300
      2 O2         -0.0632    1.3467   60.4029 O.3     1  ZINC000989658617   -0.3700
      3 C3         -0.4964    2.5502   59.7656 C.3     1  ZINC000989658617    0.0500
      4 C4         -0.2257    2.4604   58.2859 C.2     1  ZINC000989658617    0.5300
      5 O5          0.7114    1.8066   57.8794 O.2     1  ZINC000989658617   -0.5100
      6 N6         -1.0252    3.1065   57.4142 N.am    1  ZINC000989658617   -0.6200
      7 C7         -2.1935    3.9324   57.7695 C.3     1  ZINC000989658617    0.1000
      8 C8         -3.0881    3.9188   56.5049 C.3     1  ZINC000989658617   -0.1500
      9 C9         -2.0276    3.9539   55.3728 C.3     1  ZINC000989658617    0.1400
     10 H10        -1.6973    4.9756   55.1853 H       1  ZINC000989658617    0.1100
     11 N11        -2.5569    3.3494   54.1479 N.am    1  ZINC000989658617   -0.7100
     12 C12        -2.1526    3.8012   52.9442 C.2     1  ZINC000989658617    0.6100
     13 O13        -1.3497    4.7113   52.8749 O.2     1  ZINC000989658617   -0.5200
     14 C14        -2.6849    3.1904   51.7091 C.2     1  ZINC000989658617   -0.0100
     15 N15        -3.8751    2.6365   51.5515 N.2     1  ZINC000989658617   -0.2600
     16 N16        -4.0075    2.2050   50.3447 N.pl3   1  ZINC000989658617   -0.3700
     17 C17        -2.8931    2.4601   49.6398 C.2     1  ZINC000989658617    0.0100
     18 C18        -2.0276    3.0903   50.4715 C.2     1  ZINC000989658617   -0.1400
     19 C19        -0.6502    3.5513   50.0817 C.3     1  ZINC000989658617   -0.0400
     20 C20        -0.2575    2.8452   48.7768 C.3     1  ZINC000989658617   -0.0900
     21 H21        -0.0781    1.7885   48.9755 H       1  ZINC000989658617    0.0700
     22 C22         1.0156    3.4818   48.2159 C.3     1  ZINC000989658617   -0.1500
     23 C23        -1.3907    2.9875   47.7572 C.3     1  ZINC000989658617   -0.1100
     24 C24        -2.5927    2.1442   48.1971 C.3     1  ZINC000989658617   -0.0500
     25 C25        -0.8727    3.1098   55.9519 C.3     1  ZINC000989658617    0.1300
     26 H26        -0.9349    2.0887   55.5755 H       1  ZINC000989658617    0.0800
     27 C27         0.4709    3.7278   55.5599 C.3     1  ZINC000989658617   -0.1600
     28 H28         0.4406    2.1839   62.2234 H       1  ZINC000989658617    0.0500
     29 H29        -1.2111    1.5299   62.1111 H       1  ZINC000989658617    0.0400
     30 H30         0.1777    0.4234   62.2355 H       1  ZINC000989658617    0.0900
     31 H31        -1.5651    2.6851   59.9321 H       1  ZINC000989658617    0.0800
     32 H32         0.0463    3.3982   60.1835 H       1  ZINC000989658617    0.0800
     33 H33        -2.7247    3.4946   58.6147 H       1  ZINC000989658617    0.0800
     34 H34        -1.8817    4.9505   58.0026 H       1  ZINC000989658617    0.0800
     35 H35        -3.6817    3.0059   56.4560 H       1  ZINC000989658617    0.0800
     36 H36        -3.7273    4.8010   56.4690 H       1  ZINC000989658617    0.1000
     37 H37        -3.1985    2.6239   54.2031 H       1  ZINC000989658617    0.4100
     38 H38        -4.7965    1.7612   49.9964 H       1  ZINC000989658617    0.4500
     39 H39        -0.6536    4.6306   49.9288 H       1  ZINC000989658617    0.0800
     40 H40         0.0598    3.2932   50.8673 H       1  ZINC000989658617    0.0800
     41 H41         1.8228    3.3800   48.9413 H       1  ZINC000989658617    0.0600
     42 H42         1.2947    2.9804   47.2891 H       1  ZINC000989658617    0.0600
     43 H43         0.8365    4.5385   48.0174 H       1  ZINC000989658617    0.0600
     44 H44        -1.6901    4.0334   47.6910 H       1  ZINC000989658617    0.0700
     45 H45        -1.0455    2.6469   46.7810 H       1  ZINC000989658617    0.0800
     46 H46        -2.3535    1.0852   48.1002 H       1  ZINC000989658617    0.0800
     47 H47        -3.4564    2.3843   47.5771 H       1  ZINC000989658617    0.0800
     48 H48         0.5334    4.7418   55.9548 H       1  ZINC000989658617    0.0600
     49 H49         1.2813    3.1267   55.9721 H       1  ZINC000989658617    0.0700
     50 H50         0.5551    3.7552   54.4735 H       1  ZINC000989658617    0.0700
@<TRIPOS>BOND
     1     1     2    1
     2     1    28    1
     3     1    29    1
     4     1    30    1
     5     2     3    1
     6     3     4    1
     7     3    31    1
     8     3    32    1
     9     4     5    2
    10     4     6   am
    11     6    25    1
    12     6     7    1
    13     7     8    1
    14     7    33    1
    15     7    34    1
    16     8     9    1
    17     8    35    1
    18     8    36    1
    19     9    10    1
    20     9    11    1
    21     9    25    1
    22    11    12   am
    23    11    37    1
    24    12    13    2
    25    12    14    1
    26    14    18    1
    27    14    15    2
    28    15    16    1
    29    16    17    1
    30    16    38    1
    31    17    24    1
    32    17    18    2
    33    18    19    1
    34    19    20    1
    35    19    39    1
    36    19    40    1
    37    20    21    1
    38    20    22    1
    39    20    23    1
    40    22    41    1
    41    22    42    1
    42    22    43    1
    43    23    24    1
    44    23    44    1
    45    23    45    1
    46    24    46    1
    47    24    47    1
    48    25    26    1
    49    25    27    1
    50    27    48    1
    51    27    49    1
    52    27    50    1
@<TRIPOS>SUBSTRUCTURE
     1 ZINC000989658617        1 TEMP              0 ****  ****    0 ROOT


##########                                Name:    ZINC001162683355
##########                DOCK_Rotatable_Bonds:                   5
##########                         Heavy_Atoms:                  25
##########                    Molecular_Weight:             336.437
##########                DOCK_Rotatable_Bonds:                   5
##########                       Formal_Charge:          -0.0100002
##########                     HBond_Acceptors:                   5
##########                        HBond_Donors:                   1
##########                         Heavy_Atoms:                  25
##########                          Grid_Score:          -29.810358
##########                     Grid_vdw_energy:          -29.210905
##########                      Grid_es_energy:           -0.599453
##########           Internal_energy_repulsive:            9.367792

@<TRIPOS>MOLECULE
ZINC001162683355
 49 52 1 0 0
SMALL
USER_CHARGES


@<TRIPOS>ATOM
      1 C1          1.6598    1.1447   49.8973 C.3     1  ZINC001162683355    0.0200
      2 N2          0.4767    1.7285   49.2512 N.3     1  ZINC001162683355   -0.5400
      3 C3          0.8477    2.4479   48.0239 C.3     1  ZINC001162683355    0.0100
      4 C4         -0.4181    2.9878   47.3529 C.3     1  ZINC001162683355    0.0600
      5 O5         -1.1230    3.8212   48.2769 O.3     1  ZINC001162683355   -0.3800
      6 C6         -1.5003    3.1524   49.4834 C.3     1  ZINC001162683355    0.0800
      7 H7         -2.1695    2.3250   49.2469 H       1  ZINC001162683355    0.0700
      8 C8         -2.2137    4.1372   50.4118 C.3     1  ZINC001162683355    0.1500
      9 N9         -2.6986    3.4267   51.5977 N.pl3   1  ZINC001162683355   -0.7300
     10 C10        -4.0188    2.9945   51.6579 C.ar    1  ZINC001162683355    0.4300
     11 C11        -4.8260    3.3673   52.7352 C.ar    1  ZINC001162683355   -0.0100
     12 C12        -6.1571    2.9127   52.7645 C.ar    1  ZINC001162683355   -0.0400
     13 C13        -6.6164    2.1069   51.7140 C.ar    1  ZINC001162683355   -0.1800
     14 C14        -5.7575    1.7921   50.7015 C.ar    1  ZINC001162683355    0.1000
     15 N15        -4.5082    2.2313   50.6947 N.ar    1  ZINC001162683355   -0.5400
     16 C16        -6.7438    3.4532   53.9871 C.2     1  ZINC001162683355   -0.2200
     17 C17        -5.7824    4.1646   54.6026 C.2     1  ZINC001162683355    0.0800
     18 N18        -4.6330    4.1280   53.8658 N.pl3   1  ZINC001162683355   -0.4600
     19 C19        -3.3795    4.7943   54.2280 C.3     1  ZINC001162683355    0.1500
     20 C20        -2.6356    3.9528   55.2328 C.ar    1  ZINC001162683355   -0.1100
     21 C21        -3.1385    3.7966   56.5109 C.ar    1  ZINC001162683355   -0.1000
     22 C22        -2.4583    3.0211   57.4312 C.ar    1  ZINC001162683355   -0.1200
     23 C23        -1.2706    2.4094   57.0762 C.ar    1  ZINC001162683355   -0.1100
     24 C24        -0.7651    2.5699   55.7997 C.ar    1  ZINC001162683355   -0.1200
     25 C25        -1.4475    3.3417   54.8780 C.ar    1  ZINC001162683355   -0.1000
     26 C26        -0.2455    2.6141   50.1760 C.3     1  ZINC001162683355    0.0300
     27 H27         2.3291    1.9427   50.2187 H       1  ZINC001162683355    0.0300
     28 H28         1.3496    0.5599   50.7632 H       1  ZINC001162683355    0.0700
     29 H29         2.1787    0.4984   49.1893 H       1  ZINC001162683355    0.0700
     30 H30         1.3584    1.7669   47.3432 H       1  ZINC001162683355    0.0900
     31 H31         1.5091    3.2774   48.2741 H       1  ZINC001162683355    0.0500
     32 H32        -1.0551    2.1552   47.0544 H       1  ZINC001162683355    0.0600
     33 H33        -0.1442    3.5702   46.4731 H       1  ZINC001162683355    0.1000
     34 H34        -3.0572    4.5855   49.8868 H       1  ZINC001162683355    0.0700
     35 H35        -1.5179    4.9192   50.7159 H       1  ZINC001162683355    0.0800
     36 H36        -2.0986    3.2580   52.3410 H       1  ZINC001162683355    0.4000
     37 H37        -7.6327    1.7416   51.7057 H       1  ZINC001162683355    0.1300
     38 H38        -6.1041    1.1718   49.8882 H       1  ZINC001162683355    0.1500
     39 H39        -7.7559    3.3059   54.3339 H       1  ZINC001162683355    0.1500
     40 H40        -5.9023    4.6889   55.5391 H       1  ZINC001162683355    0.1700
     41 H41        -3.5988    5.7697   54.6623 H       1  ZINC001162683355    0.0900
     42 H42        -2.7658    4.9231   53.3365 H       1  ZINC001162683355    0.0900
     43 H43        -4.0645    4.2776   56.7895 H       1  ZINC001162683355    0.1200
     44 H44        -2.8534    2.8954   58.4285 H       1  ZINC001162683355    0.1300
     45 H45        -0.7379    1.8057   57.7961 H       1  ZINC001162683355    0.1300
     46 H46         0.1628    2.0919   55.5223 H       1  ZINC001162683355    0.1300
     47 H47        -1.0525    3.4672   53.8807 H       1  ZINC001162683355    0.1200
     48 H48         0.3984    3.4463   50.4606 H       1  ZINC001162683355    0.0500
     49 H49        -0.5328    2.0545   51.0662 H       1  ZINC001162683355    0.0900
@<TRIPOS>BOND
     1     1     2    1
     2     1    27    1
     3     1    28    1
     4     1    29    1
     5     2    26    1
     6     2     3    1
     7     3     4    1
     8     3    30    1
     9     3    31    1
    10     4     5    1
    11     4    32    1
    12     4    33    1
    13     5     6    1
    14     6     7    1
    15     6     8    1
    16     6    26    1
    17     8     9    1
    18     8    34    1
    19     8    35    1
    20     9    10    1
    21     9    36    1
    22    10    15   ar
    23    10    11   ar
    24    11    18    1
    25    11    12   ar
    26    12    13   ar
    27    12    16    1
    28    13    14   ar
    29    13    37    1
    30    14    15   ar
    31    14    38    1
    32    16    17    2
    33    16    39    1
    34    17    18    1
    35    17    40    1
    36    18    19    1
    37    19    20    1
    38    19    41    1
    39    19    42    1
    40    20    25   ar
    41    20    21   ar
    42    21    22   ar
    43    21    43    1
    44    22    23   ar
    45    22    44    1
    46    23    24   ar
    47    23    45    1
    48    24    25   ar
    49    24    46    1
    50    25    47    1
    51    26    48    1
    52    26    49    1
@<TRIPOS>SUBSTRUCTURE
     1 ZINC001162683355        1 TEMP              0 ****  ****    0 ROOT


##########                                Name:    ZINC000532153088
##########                DOCK_Rotatable_Bonds:                  11
##########                         Heavy_Atoms:                  29
##########                    Molecular_Weight:             402.484
##########                DOCK_Rotatable_Bonds:                  11
##########                       Formal_Charge:          -0.0200009
##########                     HBond_Acceptors:                   6
##########                        HBond_Donors:                   1
##########                         Heavy_Atoms:                  29
##########                          Grid_Score:          -29.802490
##########                     Grid_vdw_energy:          -29.354670
##########                      Grid_es_energy:           -0.447821
##########           Internal_energy_repulsive:           16.386549

@<TRIPOS>MOLECULE
ZINC000532153088
 57 59 1 0 0
SMALL
USER_CHARGES


@<TRIPOS>ATOM
      1 C1         -9.1553    5.1873   47.7122 C.3     1  ZINC000532153088   -0.1800
      2 C2        -10.3580    4.6255   48.4731 C.3     1  ZINC000532153088    0.0800
      3 C3        -11.3653    4.0454   47.4782 C.3     1  ZINC000532153088   -0.1500
      4 O4         -9.9205    3.5964   49.3628 O.3     1  ZINC000532153088   -0.3800
      5 C5         -9.0306    4.0509   50.3844 C.3     1  ZINC000532153088    0.1000
      6 C6         -9.0271    3.0636   51.5231 C.ar    1  ZINC000532153088   -0.0700
      7 C7        -10.0739    3.0456   52.4253 C.ar    1  ZINC000532153088   -0.1000
      8 C8        -10.0706    2.1398   53.4699 C.ar    1  ZINC000532153088   -0.1100
      9 C9         -9.0208    1.2521   53.6115 C.ar    1  ZINC000532153088   -0.1200
     10 C10        -7.9740    1.2695   52.7084 C.ar    1  ZINC000532153088   -0.1000
     11 C11        -7.9794    2.1721   51.6617 C.ar    1  ZINC000532153088   -0.1100
     12 C12        -6.8386    2.1911   50.6772 C.3     1  ZINC000532153088    0.1600
     13 N13        -5.9251    3.2873   51.0094 N.am    1  ZINC000532153088   -0.7300
     14 C14        -4.6167    3.0361   51.2127 C.2     1  ZINC000532153088    0.5100
     15 O15        -4.1958    1.9023   51.1221 O.2     1  ZINC000532153088   -0.5000
     16 C16        -3.6768    4.1640   51.5525 C.3     1  ZINC000532153088    0.0300
     17 N17        -2.3751    3.9257   50.9147 N.3     1  ZINC000532153088   -0.4800
     18 C18        -2.3853    4.3713   49.5150 C.3     1  ZINC000532153088    0.1000
     19 C19        -1.4648    3.4973   48.7029 C.ar    1  ZINC000532153088   -0.1300
     20 C20        -0.1331    3.8388   48.5632 C.ar    1  ZINC000532153088   -0.0600
     21 C21         0.7127    3.0378   47.8190 C.ar    1  ZINC000532153088   -0.1700
     22 C22         0.2263    1.8922   47.2126 C.ar    1  ZINC000532153088    0.1300
     23 F23         1.0532    1.1092   46.4856 F       1  ZINC000532153088   -0.1300
     24 C24        -1.1076    1.5490   47.3518 C.ar    1  ZINC000532153088   -0.2000
     25 C25        -1.9523    2.3489   48.1015 C.ar    1  ZINC000532153088    0.1600
     26 F26        -3.2543    2.0152   48.2383 F       1  ZINC000532153088   -0.1100
     27 C27        -1.2936    4.5762   51.6664 C.3     1  ZINC000532153088    0.0200
     28 C28        -1.0770    4.1364   53.1157 C.3     1  ZINC000532153088   -0.2200
     29 C29        -0.0769    3.7243   52.0337 C.3     1  ZINC000532153088   -0.1700
     30 H30        -9.4890    5.9722   47.0337 H       1  ZINC000532153088    0.0700
     31 H31        -8.4378    5.6005   48.4210 H       1  ZINC000532153088    0.0600
     32 H32        -8.6824    4.3891   47.1400 H       1  ZINC000532153088    0.0700
     33 H33       -10.8310    5.4236   49.0454 H       1  ZINC000532153088    0.0600
     34 H34       -10.8923    3.2472   46.9060 H       1  ZINC000532153088    0.0600
     35 H35       -12.2221    3.6453   48.0203 H       1  ZINC000532153088    0.0600
     36 H36       -11.6990    4.8304   46.7996 H       1  ZINC000532153088    0.0700
     37 H37        -8.0237    4.1387   49.9765 H       1  ZINC000532153088    0.0600
     38 H38        -9.3615    5.0237   50.7480 H       1  ZINC000532153088    0.0600
     39 H39       -10.8942    3.7392   52.3146 H       1  ZINC000532153088    0.1300
     40 H40       -10.8882    2.1261   54.1754 H       1  ZINC000532153088    0.1200
     41 H41        -9.0179    0.5449   54.4278 H       1  ZINC000532153088    0.1300
     42 H42        -7.1536    0.5760   52.8192 H       1  ZINC000532153088    0.1300
     43 H43        -6.3016    1.2437   50.7250 H       1  ZINC000532153088    0.0800
     44 H44        -7.2298    2.3367   49.6704 H       1  ZINC000532153088    0.0800
     45 H45        -6.2621    4.1939   51.0829 H       1  ZINC000532153088    0.4000
     46 H46        -4.0920    5.1046   51.1905 H       1  ZINC000532153088    0.0700
     47 H47        -3.5476    4.2160   52.6336 H       1  ZINC000532153088    0.1100
     48 H48        -3.3980    4.2997   49.1182 H       1  ZINC000532153088    0.0900
     49 H49        -2.0460    5.4057   49.4605 H       1  ZINC000532153088    0.0500
     50 H50         0.2472    4.7325   49.0356 H       1  ZINC000532153088    0.1400
     51 H51         1.7532    3.3059   47.7102 H       1  ZINC000532153088    0.1400
     52 H52        -1.4880    0.6554   46.8791 H       1  ZINC000532153088    0.1500
     53 H53        -1.1197    5.6252   51.4271 H       1  ZINC000532153088    0.1200
     54 H54        -0.7605    4.8964   53.8303 H       1  ZINC000532153088    0.1000
     55 H55        -1.7370    3.3645   53.5115 H       1  ZINC000532153088    0.1000
     56 H56        -0.0790    2.6811   51.7175 H       1  ZINC000532153088    0.1000
     57 H57         0.8974    4.2130   52.0364 H       1  ZINC000532153088    0.1000
@<TRIPOS>BOND
     1     1     2    1
     2     1    30    1
     3     1    31    1
     4     1    32    1
     5     2     3    1
     6     2     4    1
     7     2    33    1
     8     3    34    1
     9     3    35    1
    10     3    36    1
    11     4     5    1
    12     5     6    1
    13     5    37    1
    14     5    38    1
    15     6    11   ar
    16     6     7   ar
    17     7     8   ar
    18     7    39    1
    19     8     9   ar
    20     8    40    1
    21     9    10   ar
    22     9    41    1
    23    10    11   ar
    24    10    42    1
    25    11    12    1
    26    12    13    1
    27    12    43    1
    28    12    44    1
    29    13    14   am
    30    13    45    1
    31    14    15    2
    32    14    16    1
    33    16    17    1
    34    16    46    1
    35    16    47    1
    36    17    18    1
    37    17    27    1
    38    18    19    1
    39    18    48    1
    40    18    49    1
    41    19    25   ar
    42    19    20   ar
    43    20    21   ar
    44    20    50    1
    45    21    22   ar
    46    21    51    1
    47    22    23    1
    48    22    24   ar
    49    24    25   ar
    50    24    52    1
    51    25    26    1
    52    27    29    1
    53    27    28    1
    54    27    53    1
    55    28    29    1
    56    28    54    1
    57    28    55    1
    58    29    56    1
    59    29    57    1
@<TRIPOS>SUBSTRUCTURE
     1 ZINC000532153088        1 TEMP              0 ****  ****    0 ROOT


##########                                Name:    ZINC001181473921
##########                DOCK_Rotatable_Bonds:                   9
##########                         Heavy_Atoms:                  24
##########                    Molecular_Weight:             357.431
##########                DOCK_Rotatable_Bonds:                   9
##########                       Formal_Charge:        -5.96046e-08
##########                     HBond_Acceptors:                   9
##########                        HBond_Donors:                   4
##########                         Heavy_Atoms:                  24
##########                          Grid_Score:          -29.801495
##########                     Grid_vdw_energy:          -29.675615
##########                      Grid_es_energy:           -0.125880
##########           Internal_energy_repulsive:           14.212437

@<TRIPOS>MOLECULE
ZINC001181473921
 47 48 1 0 0
SMALL
USER_CHARGES


@<TRIPOS>ATOM
      1 C1         -5.4685    4.0638   53.4340 C.3     1  ZINC001181473921   -0.1300
      2 C2         -5.0027    3.4100   52.1586 C.2     1  ZINC001181473921    0.1900
      3 C3         -3.7391    3.6136   51.7286 C.2     1  ZINC001181473921   -0.2400
      4 C4         -3.2978    3.0044   50.5370 C.2     1  ZINC001181473921    0.2500
      5 O5         -2.0331    3.1986   50.0927 O.3     1  ZINC001181473921   -0.4600
      6 C6         -4.1758    2.2051   49.8285 C.2     1  ZINC001181473921   -0.3700
      7 C7         -5.4759    2.0241   50.3144 C.2     1  ZINC001181473921    0.5300
      8 O8         -6.2633    1.3208   49.7006 O.2     1  ZINC001181473921   -0.5500
      9 N9         -5.8583    2.6189   51.4596 N.am    1  ZINC001181473921   -0.5000
     10 C10        -7.2225    2.4189   51.9549 C.3     1  ZINC001181473921    0.1000
     11 C11        -7.2250    1.3096   53.0086 C.3     1  ZINC001181473921   -0.1600
     12 C12        -8.3028    0.3083   52.6814 C.2     1  ZINC001181473921    0.5200
     13 O13        -8.0232   -0.7108   52.0862 O.2     1  ZINC001181473921   -0.5300
     14 N14        -9.5772    0.5453   53.0501 N.am    1  ZINC001181473921   -0.7200
     15 C15       -10.6252   -0.4272   52.7304 C.3     1  ZINC001181473921    0.1400
     16 H16       -10.3113   -1.0764   51.9130 H       1  ZINC001181473921    0.1000
     17 C17       -11.9527    0.2908   52.3824 C.3     1  ZINC001181473921   -0.1300
     18 C18       -13.0407   -0.7631   52.6745 C.3     1  ZINC001181473921   -0.1500
     19 C19       -12.4373   -1.7476   53.6915 C.3     1  ZINC001181473921   -0.0800
     20 H20       -12.4101   -2.7518   53.2683 H       1  ZINC001181473921    0.0900
     21 C21       -13.2644   -1.7440   54.9787 C.3     1  ZINC001181473921   -0.6200
     22 S22       -12.9647   -3.2810   55.8944 S.o2    1  ZINC001181473921    2.6100
     23 N23       -11.3523   -3.2316   56.2681 N.am    1  ZINC001181473921   -1.2500
     24 O24       -13.6181   -3.2454   57.1558 O.2     1  ZINC001181473921   -0.9600
     25 O25       -13.0911   -4.4058   55.0354 O.2     1  ZINC001181473921   -0.9600
     26 C26       -11.0000   -1.2611   53.9807 C.3     1  ZINC001181473921   -0.1200
     27 H27        -5.8490    3.3023   54.1147 H       1  ZINC001181473921    0.0900
     28 H28        -4.6327    4.5843   53.9017 H       1  ZINC001181473921    0.1000
     29 H29        -6.2604    4.7778   53.2081 H       1  ZINC001181473921    0.0900
     30 H30        -3.0685    4.2418   52.2962 H       1  ZINC001181473921    0.1500
     31 H31        -1.3497    2.9390   50.7257 H       1  ZINC001181473921    0.4100
     32 H32        -3.8626    1.7270   48.9121 H       1  ZINC001181473921    0.1500
     33 H33        -7.5865    3.3445   52.4008 H       1  ZINC001181473921    0.1000
     34 H34        -7.8718    2.1348   51.1266 H       1  ZINC001181473921    0.1100
     35 H35        -6.2556    0.8112   53.0138 H       1  ZINC001181473921    0.1100
     36 H36        -7.4167    1.7418   53.9907 H       1  ZINC001181473921    0.1000
     37 H37        -9.8007    1.3598   53.5271 H       1  ZINC001181473921    0.4000
     38 H38       -12.0902    1.1668   53.0162 H       1  ZINC001181473921    0.0700
     39 H39       -11.9688    0.5740   51.3299 H       1  ZINC001181473921    0.0800
     40 H40       -13.9223   -0.2822   53.0982 H       1  ZINC001181473921    0.0900
     41 H41       -13.3065   -1.2895   51.7577 H       1  ZINC001181473921    0.0800
     42 H42       -12.9751   -0.8921   55.5941 H       1  ZINC001181473921    0.1400
     43 H43       -14.3231   -1.6698   54.7300 H       1  ZINC001181473921    0.1400
     44 H44       -10.9477   -3.9580   56.7676 H       1  ZINC001181473921    0.4100
     45 H45       -10.8122   -2.4763   55.9875 H       1  ZINC001181473921    0.4200
     46 H46       -10.3259   -2.1098   54.0955 H       1  ZINC001181473921    0.0800
     47 H47       -10.9816   -0.6347   54.8726 H       1  ZINC001181473921    0.0800
@<TRIPOS>BOND
     1     1     2    1
     2     1    27    1
     3     1    28    1
     4     1    29    1
     5     2     9    1
     6     2     3    2
     7     3     4    1
     8     3    30    1
     9     4     5    1
    10     4     6    2
    11     5    31    1
    12     6     7    1
    13     6    32    1
    14     7     8    2
    15     7     9   am
    16     9    10    1
    17    10    11    1
    18    10    33    1
    19    10    34    1
    20    11    12    1
    21    11    35    1
    22    11    36    1
    23    12    13    2
    24    12    14   am
    25    14    15    1
    26    14    37    1
    27    15    16    1
    28    15    26    1
    29    15    17    1
    30    17    18    1
    31    17    38    1
    32    17    39    1
    33    18    19    1
    34    18    40    1
    35    18    41    1
    36    19    20    1
    37    19    21    1
    38    19    26    1
    39    21    22    1
    40    21    42    1
    41    21    43    1
    42    22    23   am
    43    22    24    2
    44    22    25    2
    45    23    44    1
    46    23    45    1
    47    26    46    1
    48    26    47    1
@<TRIPOS>SUBSTRUCTURE
     1 ZINC001181473921        1 TEMP              0 ****  ****    0 ROOT


##########                                Name:    ZINC001490207225
##########                DOCK_Rotatable_Bonds:                   7
##########                         Heavy_Atoms:                  24
##########                    Molecular_Weight:             334.378
##########                DOCK_Rotatable_Bonds:                   7
##########                       Formal_Charge:           -0.010001
##########                     HBond_Acceptors:                   9
##########                        HBond_Donors:                   3
##########                         Heavy_Atoms:                  24
##########                          Grid_Score:          -29.797379
##########                     Grid_vdw_energy:          -27.091999
##########                      Grid_es_energy:           -2.705380
##########           Internal_energy_repulsive:            5.811241

@<TRIPOS>MOLECULE
ZINC001490207225
 46 48 1 0 0
SMALL
USER_CHARGES


@<TRIPOS>ATOM
      1 C1          2.2263    3.5037   44.7207 C.3     1  ZINC001490207225    0.0900
      2 N2          1.3991    2.8924   45.7639 N.pl3   1  ZINC001490207225   -0.3600
      3 C3          0.0690    3.0254   45.8888 C.2     1  ZINC001490207225    0.1300
      4 C4         -0.3174    2.2946   46.9944 C.2     1  ZINC001490207225   -0.3000
      5 C5         -1.6901    2.1512   47.5126 C.2     1  ZINC001490207225    0.6200
      6 O6         -2.5617    1.6846   46.8045 O.2     1  ZINC001490207225   -0.5400
      7 N7         -1.9791    2.5372   48.7712 N.am    1  ZINC001490207225   -0.6200
      8 C8         -3.2890    2.4554   49.4376 C.3     1  ZINC001490207225    0.1100
      9 C9         -3.3499    3.6350   50.4221 C.3     1  ZINC001490207225   -0.1100
     10 H10        -3.9730    4.4479   50.0491 H       1  ZINC001490207225    0.1000
     11 C11        -3.8283    3.1210   51.7962 C.3     1  ZINC001490207225    0.1000
     12 N12        -2.9378    3.7841   52.7766 N.am    1  ZINC001490207225   -0.6200
     13 C13        -3.2679    4.2978   53.9781 C.2     1  ZINC001490207225    0.5300
     14 O14        -2.4171    4.8142   54.6712 O.2     1  ZINC001490207225   -0.5300
     15 C15        -4.6940    4.2306   54.4603 C.3     1  ZINC001490207225    0.1200
     16 N16        -4.7117    4.1484   55.9229 N.am    1  ZINC001490207225   -0.7400
     17 C17        -5.7217    3.5135   56.5500 C.2     1  ZINC001490207225    0.7100
     18 N18        -5.7371    3.4365   57.8955 N.am    1  ZINC001490207225   -0.8600
     19 O19        -6.6188    3.0101   55.9020 O.2     1  ZINC001490207225   -0.5900
     20 C20        -1.6023    3.7543   52.1369 C.3     1  ZINC001490207225    0.1100
     21 C21        -1.8763    4.0730   50.6261 C.3     1  ZINC001490207225   -0.0800
     22 C22        -1.6292    5.5462   50.2951 C.3     1  ZINC001490207225   -0.1300
     23 C23        -1.0449    3.1169   49.7500 C.3     1  ZINC001490207225    0.1000
     24 C24         0.8490    1.7096   47.5362 C.2     1  ZINC001490207225    0.0700
     25 N25         1.8613    2.0665   46.7947 N.2     1  ZINC001490207225   -0.2900
     26 H26         2.2888    2.8307   43.8657 H       1  ZINC001490207225    0.0800
     27 H27         1.7787    4.4472   44.4084 H       1  ZINC001490207225    0.0900
     28 H28         3.2268    3.6881   45.1120 H       1  ZINC001490207225    0.1000
     29 H29        -0.5796    3.5988   45.2431 H       1  ZINC001490207225    0.1900
     30 H30        -4.0889    2.5405   48.7020 H       1  ZINC001490207225    0.0900
     31 H31        -3.3757    1.5126   49.9778 H       1  ZINC001490207225    0.0800
     32 H32        -4.8651    3.4091   51.9695 H       1  ZINC001490207225    0.0900
     33 H33        -3.7191    2.0381   51.8557 H       1  ZINC001490207225    0.0900
     34 H34        -5.2284    5.1250   54.1401 H       1  ZINC001490207225    0.1000
     35 H35        -5.1781    3.3485   54.0410 H       1  ZINC001490207225    0.1000
     36 H36        -3.9966    4.5511   56.4400 H       1  ZINC001490207225    0.4100
     37 H37        -6.4635    2.9785   58.3468 H       1  ZINC001490207225    0.4000
     38 H38        -5.0220    3.8392   58.4125 H       1  ZINC001490207225    0.4200
     39 H39        -0.9578    4.5206   52.5675 H       1  ZINC001490207225    0.0900
     40 H40        -1.1495    2.7692   52.2489 H       1  ZINC001490207225    0.0800
     41 H41        -0.5867    5.7936   50.4956 H       1  ZINC001490207225    0.0700
     42 H42        -1.8489    5.7239   49.2424 H       1  ZINC001490207225    0.0600
     43 H43        -2.2758    6.1704   50.9117 H       1  ZINC001490207225    0.0600
     44 H44        -0.6246    2.3189   50.3620 H       1  ZINC001490207225    0.0800
     45 H45        -0.2465    3.6660   49.2509 H       1  ZINC001490207225    0.0900
     46 H46         0.8941    1.0747   48.4087 H       1  ZINC001490207225    0.2000
@<TRIPOS>BOND
     1     1     2    1
     2     1    26    1
     3     1    27    1
     4     1    28    1
     5     2    25    1
     6     2     3    1
     7     3     4    2
     8     3    29    1
     9     4     5    1
    10     4    24    1
    11     5     6    2
    12     5     7   am
    13     7    23    1
    14     7     8    1
    15     8     9    1
    16     8    30    1
    17     8    31    1
    18     9    10    1
    19     9    21    1
    20     9    11    1
    21    11    12    1
    22    11    32    1
    23    11    33    1
    24    12    13   am
    25    12    20    1
    26    13    14    2
    27    13    15    1
    28    15    16    1
    29    15    34    1
    30    15    35    1
    31    16    17   am
    32    16    36    1
    33    17    18   am
    34    17    19    2
    35    18    37    1
    36    18    38    1
    37    20    21    1
    38    20    39    1
    39    20    40    1
    40    21    22    1
    41    21    23    1
    42    22    41    1
    43    22    42    1
    44    22    43    1
    45    23    44    1
    46    23    45    1
    47    24    25    2
    48    24    46    1
@<TRIPOS>SUBSTRUCTURE
     1 ZINC001490207225        1 TEMP              0 ****  ****    0 ROOT


##########                                Name:    ZINC000851838607
##########                DOCK_Rotatable_Bonds:                  12
##########                         Heavy_Atoms:                  23
##########                    Molecular_Weight:             352.495
##########                DOCK_Rotatable_Bonds:                  12
##########                       Formal_Charge:          0.00999896
##########                     HBond_Acceptors:                   8
##########                        HBond_Donors:                   2
##########                         Heavy_Atoms:                  23
##########                          Grid_Score:          -29.790129
##########                     Grid_vdw_energy:          -30.038691
##########                      Grid_es_energy:            0.248561
##########           Internal_energy_repulsive:           22.031103

@<TRIPOS>MOLECULE
ZINC000851838607
 55 54 1 0 0
SMALL
USER_CHARGES


@<TRIPOS>ATOM
      1 C1         -8.0792    1.6685   52.4224 C.3     1  ZINC000851838607    0.0300
      2 O2         -7.1023    2.3790   51.6590 O.3     1  ZINC000851838607   -0.3800
      3 C3         -6.4335    3.4109   52.3870 C.3     1  ZINC000851838607    0.0800
      4 C4         -5.4164    4.1008   51.4757 C.3     1  ZINC000851838607   -0.6000
      5 H5         -5.9319    4.5358   50.6196 H       1  ZINC000851838607    0.1400
      6 C6         -4.7004    5.2058   52.2552 C.3     1  ZINC000851838607   -0.1400
      7 S7         -4.2013    2.8849   50.8962 S.o2    1  ZINC000851838607    2.6200
      8 O8         -3.3851    2.4438   51.9724 O.2     1  ZINC000851838607   -0.9400
      9 O9         -4.8095    1.9561   50.0094 O.2     1  ZINC000851838607   -0.9500
     10 N10        -3.1727    3.7553   49.9335 N.am    1  ZINC000851838607   -1.1200
     11 C11        -2.0432    3.0904   49.2791 C.3     1  ZINC000851838607    0.1100
     12 C12        -0.7972    3.9709   49.3933 C.3     1  ZINC000851838607   -0.1400
     13 C13         0.3199    3.3889   48.5249 C.3     1  ZINC000851838607    0.1700
     14 H14         1.2485    3.9253   48.7199 H       1  ZINC000851838607    0.1000
     15 N15         0.4988    1.9706   48.8452 N.am    1  ZINC000851838607   -0.7100
     16 C16         1.4232    1.5957   49.7515 C.2     1  ZINC000851838607    0.6500
     17 O17         2.1074    2.4344   50.3040 O.2     1  ZINC000851838607   -0.5600
     18 O18         1.5887    0.2922   50.0447 O.3     1  ZINC000851838607   -0.3700
     19 C19         2.6608   -0.4068   49.3588 C.3     1  ZINC000851838607    0.1400
     20 C20         2.4012   -1.9137   49.4090 C.3     1  ZINC000851838607   -0.1800
     21 C21         2.7182    0.0526   47.9006 C.3     1  ZINC000851838607   -0.1400
     22 C22         3.9928   -0.0957   50.0443 C.3     1  ZINC000851838607   -0.1800
     23 C23        -0.0532    3.5351   47.0483 C.3     1  ZINC000851838607   -0.1100
     24 C24         1.0477    4.3070   46.3182 C.3     1  ZINC000851838607   -0.1500
     25 C25        -0.2055    2.1479   46.4210 C.3     1  ZINC000851838607   -0.1400
     26 H26        -7.5982    1.1975   53.2797 H       1  ZINC000851838607    0.0400
     27 H27        -8.8434    2.3632   52.7711 H       1  ZINC000851838607    0.0500
     28 H28        -8.5412    0.9030   51.7990 H       1  ZINC000851838607    0.0900
     29 H29        -7.1637    4.1415   52.7351 H       1  ZINC000851838607    0.0700
     30 H30        -5.9180    2.9759   53.2432 H       1  ZINC000851838607    0.0600
     31 H31        -3.9138    5.6363   51.6355 H       1  ZINC000851838607    0.0700
     32 H32        -5.4162    5.9821   52.5252 H       1  ZINC000851838607    0.0900
     33 H33        -4.2611    4.7859   53.1601 H       1  ZINC000851838607    0.0700
     34 H34        -3.3182    4.7054   49.8028 H       1  ZINC000851838607    0.4200
     35 H35        -1.8562    2.1316   49.7627 H       1  ZINC000851838607    0.0700
     36 H36        -2.2776    2.9270   48.2272 H       1  ZINC000851838607    0.0800
     37 H37        -1.0329    4.9796   49.0542 H       1  ZINC000851838607    0.0800
     38 H38        -0.4698    4.0041   50.4324 H       1  ZINC000851838607    0.1000
     39 H39        -0.0482    1.3012   48.4051 H       1  ZINC000851838607    0.4100
     40 H40         1.4522   -2.1354   48.9206 H       1  ZINC000851838607    0.0600
     41 H41         3.2060   -2.4384   48.8941 H       1  ZINC000851838607    0.0700
     42 H42         2.3603   -2.2410   50.4478 H       1  ZINC000851838607    0.0900
     43 H43         2.9032    1.1263   47.8648 H       1  ZINC000851838607    0.0700
     44 H44         3.5230   -0.4720   47.3857 H       1  ZINC000851838607    0.0800
     45 H45         1.7693   -0.1690   47.4122 H       1  ZINC000851838607    0.0700
     46 H46         3.9520   -0.4230   51.0832 H       1  ZINC000851838607    0.0900
     47 H47         4.7977   -0.6204   49.5295 H       1  ZINC000851838607    0.0700
     48 H48         4.1779    0.9780   50.0086 H       1  ZINC000851838607    0.0600
     49 H49        -0.9947    4.0777   46.9635 H       1  ZINC000851838607    0.0700
     50 H50         1.9893    3.7644   46.4030 H       1  ZINC000851838607    0.0600
     51 H51         0.7819    4.4110   45.2662 H       1  ZINC000851838607    0.0600
     52 H52         1.1563    5.2952   46.7650 H       1  ZINC000851838607    0.0600
     53 H53        -0.9898    1.5981   46.9412 H       1  ZINC000851838607    0.0500
     54 H54        -0.4713    2.2521   45.3691 H       1  ZINC000851838607    0.0500
     55 H55         0.7361    1.6054   46.5058 H       1  ZINC000851838607    0.0700
@<TRIPOS>BOND
     1     1     2    1
     2     1    26    1
     3     1    27    1
     4     1    28    1
     5     2     3    1
     6     3     4    1
     7     3    29    1
     8     3    30    1
     9     4     5    1
    10     4     6    1
    11     4     7    1
    12     6    31    1
    13     6    32    1
    14     6    33    1
    15     7     8    2
    16     7     9    2
    17     7    10   am
    18    10    11    1
    19    10    34    1
    20    11    12    1
    21    11    35    1
    22    11    36    1
    23    12    13    1
    24    12    37    1
    25    12    38    1
    26    13    14    1
    27    13    15    1
    28    13    23    1
    29    15    16   am
    30    15    39    1
    31    16    17    2
    32    16    18    1
    33    18    19    1
    34    19    20    1
    35    19    21    1
    36    19    22    1
    37    20    40    1
    38    20    41    1
    39    20    42    1
    40    21    43    1
    41    21    44    1
    42    21    45    1
    43    22    46    1
    44    22    47    1
    45    22    48    1
    46    23    24    1
    47    23    25    1
    48    23    49    1
    49    24    50    1
    50    24    51    1
    51    24    52    1
    52    25    53    1
    53    25    54    1
    54    25    55    1
@<TRIPOS>SUBSTRUCTURE
     1 ZINC000851838607        1 TEMP              0 ****  ****    0 ROOT


##########                                Name:    ZINC000914736341
##########                DOCK_Rotatable_Bonds:                   7
##########                         Heavy_Atoms:                  27
##########                    Molecular_Weight:             384.905
##########                DOCK_Rotatable_Bonds:                   7
##########                       Formal_Charge:                0.02
##########                     HBond_Acceptors:                   5
##########                        HBond_Donors:                   1
##########                         Heavy_Atoms:                  27
##########                          Grid_Score:          -29.784224
##########                     Grid_vdw_energy:          -29.278387
##########                      Grid_es_energy:           -0.505837
##########           Internal_energy_repulsive:           24.079220

@<TRIPOS>MOLECULE
ZINC000914736341
 52 54 1 0 0
SMALL
USER_CHARGES


@<TRIPOS>ATOM
      1 C1         -7.5117    2.6379   54.0882 C.3     1  ZINC000914736341   -0.1400
      2 C2         -8.1864    2.0270   52.8583 C.3     1  ZINC000914736341   -0.0300
      3 C3         -8.6154    3.1437   51.9045 C.3     1  ZINC000914736341   -0.1400
      4 C4         -7.2019    1.0976   52.1456 C.3     1  ZINC000914736341    0.1300
      5 N5         -5.8846    1.7357   52.0847 N.am    1  ZINC000914736341   -0.7200
      6 C6         -5.2487    1.8571   50.9026 C.2     1  ZINC000914736341    0.5300
      7 O7         -5.7663    1.4368   49.8895 O.2     1  ZINC000914736341   -0.5300
      8 C8         -3.8943    2.5151   50.8397 C.3     1  ZINC000914736341   -0.1200
      9 H9         -3.2164    2.0786   51.5731 H       1  ZINC000914736341    0.1200
     10 C10        -4.0123    4.0442   51.0365 C.3     1  ZINC000914736341   -0.1400
     11 C11        -2.9721    4.6200   50.1011 C.2     1  ZINC000914736341    0.5200
     12 O12        -2.5459    5.7545   50.1500 O.2     1  ZINC000914736341   -0.5200
     13 N13        -2.5885    3.6912   49.2083 N.am    1  ZINC000914736341   -0.6100
     14 C14        -1.5870    3.9139   48.1625 C.3     1  ZINC000914736341    0.1600
     15 C15        -0.3030    3.2217   48.5410 C.ar    1  ZINC000914736341   -0.1000
     16 C16         0.4803    3.7278   49.5608 C.ar    1  ZINC000914736341   -0.0800
     17 C17         1.6583    3.0928   49.9081 C.ar    1  ZINC000914736341   -0.1100
     18 C18         2.0536    1.9519   49.2355 C.ar    1  ZINC000914736341   -0.1000
     19 C19         1.2708    1.4447   48.2152 C.ar    1  ZINC000914736341   -0.1100
     20 C20         0.0890    2.0760   47.8713 C.ar    1  ZINC000914736341   -0.0300
     21 Cl21       -0.8946    1.4396   46.5901 Cl      1  ZINC000914736341   -0.0600
     22 C22        -3.3013    2.4246   49.4161 C.3     1  ZINC000914736341    0.1000
     23 C23        -9.3979    1.2407   53.2885 C.ar    1  ZINC000914736341   -0.0700
     24 C24        -9.6175   -0.0249   52.7780 C.ar    1  ZINC000914736341   -0.1200
     25 C25       -10.7289   -0.7461   53.1727 C.ar    1  ZINC000914736341   -0.1200
     26 C26       -11.6203   -0.2017   54.0782 C.ar    1  ZINC000914736341   -0.1200
     27 C27       -11.4001    1.0636   54.5894 C.ar    1  ZINC000914736341   -0.1200
     28 C28       -10.2866    1.7831   54.1979 C.ar    1  ZINC000914736341   -0.1100
     29 H29        -8.2130    3.3001   54.5960 H       1  ZINC000914736341    0.0600
     30 H30        -7.2061    1.8424   54.7676 H       1  ZINC000914736341    0.0600
     31 H31        -6.6354    3.2066   53.7770 H       1  ZINC000914736341    0.0600
     32 H32        -7.7391    3.7123   51.5933 H       1  ZINC000914736341    0.0600
     33 H33        -9.0959    2.7085   51.0282 H       1  ZINC000914736341    0.0600
     34 H34        -9.3167    3.8059   52.4122 H       1  ZINC000914736341    0.0600
     35 H35        -7.1260    0.1589   52.6944 H       1  ZINC000914736341    0.0700
     36 H36        -7.5567    0.8994   51.1341 H       1  ZINC000914736341    0.0700
     37 H37        -5.4701    2.0708   52.8951 H       1  ZINC000914736341    0.4000
     38 H38        -5.0082    4.3890   50.7581 H       1  ZINC000914736341    0.1100
     39 H39        -3.7887    4.3144   52.0686 H       1  ZINC000914736341    0.1100
     40 H40        -1.9523    3.5108   47.2179 H       1  ZINC000914736341    0.1000
     41 H41        -1.4053    4.9833   48.0552 H       1  ZINC000914736341    0.1000
     42 H42         0.1724    4.6196   50.0863 H       1  ZINC000914736341    0.1400
     43 H43         2.2702    3.4887   50.7052 H       1  ZINC000914736341    0.1300
     44 H44         2.9742    1.4567   49.5067 H       1  ZINC000914736341    0.1300
     45 H45         1.5797    0.5532   47.6896 H       1  ZINC000914736341    0.1400
     46 H46        -2.6082    1.5862   49.3477 H       1  ZINC000914736341    0.1000
     47 H47        -4.0995    2.3161   48.6819 H       1  ZINC000914736341    0.0900
     48 H48        -8.9211   -0.4502   52.0706 H       1  ZINC000914736341    0.1300
     49 H49       -10.9008   -1.7347   52.7733 H       1  ZINC000914736341    0.1200
     50 H50       -12.4890   -0.7649   54.3860 H       1  ZINC000914736341    0.1200
     51 H51       -12.0968    1.4890   55.2965 H       1  ZINC000914736341    0.1200
     52 H52       -10.1146    2.7717   54.5974 H       1  ZINC000914736341    0.1200
@<TRIPOS>BOND
     1     1     2    1
     2     1    29    1
     3     1    30    1
     4     1    31    1
     5     2     3    1
     6     2     4    1
     7     2    23    1
     8     3    32    1
     9     3    33    1
    10     3    34    1
    11     4     5    1
    12     4    35    1
    13     4    36    1
    14     5     6   am
    15     5    37    1
    16     6     7    2
    17     6     8    1
    18     8     9    1
    19     8    22    1
    20     8    10    1
    21    10    11    1
    22    10    38    1
    23    10    39    1
    24    11    12    2
    25    11    13   am
    26    13    14    1
    27    13    22    1
    28    14    15    1
    29    14    40    1
    30    14    41    1
    31    15    20   ar
    32    15    16   ar
    33    16    17   ar
    34    16    42    1
    35    17    18   ar
    36    17    43    1
    37    18    19   ar
    38    18    44    1
    39    19    20   ar
    40    19    45    1
    41    20    21    1
    42    22    46    1
    43    22    47    1
    44    23    28   ar
    45    23    24   ar
    46    24    25   ar
    47    24    48    1
    48    25    26   ar
    49    25    49    1
    50    26    27   ar
    51    26    50    1
    52    27    28   ar
    53    27    51    1
    54    28    52    1
@<TRIPOS>SUBSTRUCTURE
     1 ZINC000914736341        1 TEMP              0 ****  ****    0 ROOT


##########                                Name:    ZINC000269356812
##########                DOCK_Rotatable_Bonds:                  10
##########                         Heavy_Atoms:                  25
##########                    Molecular_Weight:             387.431
##########                DOCK_Rotatable_Bonds:                  10
##########                       Formal_Charge:          0.00999978
##########                     HBond_Acceptors:                  10
##########                        HBond_Donors:                   3
##########                         Heavy_Atoms:                  25
##########                          Grid_Score:          -29.784218
##########                     Grid_vdw_energy:          -25.654911
##########                      Grid_es_energy:           -4.129306
##########           Internal_energy_repulsive:            5.252079

@<TRIPOS>MOLECULE
ZINC000269356812
 40 41 1 0 0
SMALL
USER_CHARGES


@<TRIPOS>ATOM
      1 C1         -0.1346    0.3299   62.3635 C.3     1  ZINC000269356812   -0.1400
      2 C2          0.4428   -0.5466   61.2503 C.3     1  ZINC000269356812    0.2000
      3 O3         -0.6203   -1.2255   60.5787 O.3     1  ZINC000269356812   -0.5400
      4 C4          1.1992    0.3309   60.2509 C.3     1  ZINC000269356812    0.0900
      5 N5          0.2408    1.0945   59.4482 N.am    1  ZINC000269356812   -0.6900
      6 C6          0.6002    2.2798   58.9167 C.2     1  ZINC000269356812    0.5100
      7 O7          1.7174    2.7152   59.1044 O.2     1  ZINC000269356812   -0.5100
      8 C8         -0.3762    3.0573   58.0971 C.2     1  ZINC000269356812    0.5100
      9 O9         -0.4505    4.2624   58.2230 O.2     1  ZINC000269356812   -0.4900
     10 N10        -1.1752    2.4211   57.2177 N.am    1  ZINC000269356812   -0.6400
     11 C11        -2.0901    3.1497   56.4496 C.ar    1  ZINC000269356812    0.0900
     12 C12        -1.7807    3.5120   55.1389 C.ar    1  ZINC000269356812   -0.0600
     13 C13        -2.7145    4.2311   54.4166 C.ar    1  ZINC000269356812   -0.1200
     14 C14        -3.9240    4.5676   55.0170 C.ar    1  ZINC000269356812    0.1000
     15 S15        -5.1232    5.4834   54.1071 S.3     1  ZINC000269356812   -0.0600
     16 C16        -5.9847    4.1989   53.1593 C.3     1  ZINC000269356812    0.2900
     17 F17        -5.0457    3.3495   52.5644 F       1  ZINC000269356812   -0.1700
     18 F18        -6.8060    3.4587   54.0165 F       1  ZINC000269356812   -0.1700
     19 N19        -4.1842    4.2066   56.2645 N.ar    1  ZINC000269356812   -0.4600
     20 C20        -3.3186    3.5155   56.9808 C.ar    1  ZINC000269356812    0.1100
     21 C21         1.3875   -1.5581   61.8463 C.2     1  ZINC000269356812   -0.2300
     22 C22         1.0417   -2.7714   62.2795 C.2     1  ZINC000269356812   -0.1100
     23 C23         2.0833   -3.5278   62.7886 C.2     1  ZINC000269356812   -0.1400
     24 C24         3.2750   -2.9288   62.7687 C.2     1  ZINC000269356812   -0.2000
     25 S25         3.1160   -1.3224   62.0702 S.3     1  ZINC000269356812    0.1100
     26 H26        -0.6736   -0.2952   63.0755 H       1  ZINC000269356812    0.0800
     27 H27         0.6763    0.8478   62.8757 H       1  ZINC000269356812    0.0800
     28 H28        -0.8180    1.0616   61.9324 H       1  ZINC000269356812    0.0700
     29 H29        -1.2471   -0.6357   60.1378 H       1  ZINC000269356812    0.3800
     30 H30         1.8502    1.0184   60.7910 H       1  ZINC000269356812    0.0900
     31 H31         1.8005   -0.2999   59.5961 H       1  ZINC000269356812    0.0900
     32 H32        -0.6526    0.7471   59.2992 H       1  ZINC000269356812    0.4200
     33 H33        -1.1159    1.4581   57.1172 H       1  ZINC000269356812    0.4300
     34 H34        -0.8336    3.2374   54.6985 H       1  ZINC000269356812    0.1600
     35 H35        -2.5078    4.5285   53.3991 H       1  ZINC000269356812    0.1500
     36 H36        -6.5941    4.6656   52.3854 H       1  ZINC000269356812    0.1500
     37 H37        -3.5654    3.2389   57.9952 H       1  ZINC000269356812    0.1700
     38 H38         0.0260   -3.1359   62.2367 H       1  ZINC000269356812    0.1500
     39 H39         1.9417   -4.5271   63.1730 H       1  ZINC000269356812    0.1400
     40 H40         4.1969   -3.3649   63.1239 H       1  ZINC000269356812    0.1700
@<TRIPOS>BOND
     1     1     2    1
     2     1    26    1
     3     1    27    1
     4     1    28    1
     5     2     3    1
     6     2     4    1
     7     2    21    1
     8     3    29    1
     9     4     5    1
    10     4    30    1
    11     4    31    1
    12     5     6   am
    13     5    32    1
    14     6     7    2
    15     6     8    1
    16     8     9    2
    17     8    10   am
    18    10    11    1
    19    10    33    1
    20    11    20   ar
    21    11    12   ar
    22    12    13   ar
    23    12    34    1
    24    13    14   ar
    25    13    35    1
    26    14    15    1
    27    14    19   ar
    28    15    16    1
    29    16    17    1
    30    16    18    1
    31    16    36    1
    32    19    20   ar
    33    20    37    1
    34    21    25    1
    35    21    22    2
    36    22    23    1
    37    22    38    1
    38    23    24    2
    39    23    39    1
    40    24    25    1
    41    24    40    1
@<TRIPOS>SUBSTRUCTURE
     1 ZINC000269356812        1 TEMP              0 ****  ****    0 ROOT


##########                                Name:    ZINC000542980334
##########                DOCK_Rotatable_Bonds:                   6
##########                         Heavy_Atoms:                  27
##########                    Molecular_Weight:             404.795
##########                DOCK_Rotatable_Bonds:                   6
##########                       Formal_Charge:           0.0300001
##########                     HBond_Acceptors:                  10
##########                        HBond_Donors:                   1
##########                         Heavy_Atoms:                  27
##########                          Grid_Score:          -29.781130
##########                     Grid_vdw_energy:          -28.974379
##########                      Grid_es_energy:           -0.806752
##########           Internal_energy_repulsive:           14.367732

@<TRIPOS>MOLECULE
ZINC000542980334
 44 46 1 0 0
SMALL
USER_CHARGES


@<TRIPOS>ATOM
      1 O1         -4.2140    2.2045   48.9463 O.2     1  ZINC000542980334   -0.5800
      2 C2         -4.1337    2.4782   50.1283 C.2     1  ZINC000542980334    0.7100
      3 N3         -5.0127    1.9510   51.0034 N.am    1  ZINC000542980334   -0.7400
      4 C4         -6.0689    1.0530   50.5297 C.3     1  ZINC000542980334    0.1800
      5 C5         -7.2763    1.1826   51.4221 C.ar    1  ZINC000542980334   -0.1400
      6 C6         -7.9306    2.3976   51.5297 C.ar    1  ZINC000542980334    0.1300
      7 F7         -7.4871    3.4680   50.8348 F       1  ZINC000542980334   -0.1200
      8 C8         -9.0403    2.5152   52.3497 C.ar    1  ZINC000542980334   -0.1500
      9 C9         -9.4939    1.4201   53.0599 C.ar    1  ZINC000542980334   -0.0700
     10 C10        -8.8404    0.2066   52.9525 C.ar    1  ZINC000542980334   -0.1200
     11 C11        -7.7347    0.0859   52.1297 C.ar    1  ZINC000542980334    0.0100
     12 Cl12       -6.9153   -1.4385   51.9950 Cl      1  ZINC000542980334   -0.0400
     13 N13        -3.1621    3.3043   50.5641 N.am    1  ZINC000542980334   -0.6300
     14 C14        -2.1965    3.8867   49.6223 C.3     1  ZINC000542980334    0.1100
     15 C15        -0.7793    3.5783   50.1155 C.3     1  ZINC000542980334   -0.1300
     16 C16        -0.6267    4.0702   51.5566 C.3     1  ZINC000542980334   -0.1300
     17 C17        -1.6220    3.3345   52.4566 C.3     1  ZINC000542980334    0.1400
     18 H18        -1.4419    2.2611   52.3971 H       1  ZINC000542980334    0.1100
     19 N19        -1.4531    3.7827   53.8411 N.pl3   1  ZINC000542980334   -0.3400
     20 C20        -0.3008    4.2016   54.4050 C.2     1  ZINC000542980334    0.0600
     21 C21        -0.5654    4.5261   55.6918 C.2     1  ZINC000542980334   -0.2300
     22 C22        -1.9260    4.2978   55.9221 C.2     1  ZINC000542980334   -0.0200
     23 C23        -2.6523    4.5258   57.2227 C.3     1  ZINC000542980334    0.5600
     24 F24        -1.7563    4.3855   58.2879 F       1  ZINC000542980334   -0.1700
     25 F25        -3.1930    5.8161   57.2349 F       1  ZINC000542980334   -0.1700
     26 F26        -3.6818    3.5875   57.3526 F       1  ZINC000542980334   -0.1600
     27 N27        -2.4602    3.8579   54.8118 N.2     1  ZINC000542980334   -0.2300
     28 C28        -3.0522    3.6446   51.9892 C.3     1  ZINC000542980334    0.1300
     29 H29        -4.9462    2.1663   51.9469 H       1  ZINC000542980334    0.4000
     30 H30        -6.3415    1.3196   49.5085 H       1  ZINC000542980334    0.0900
     31 H31        -5.7087    0.0245   50.5528 H       1  ZINC000542980334    0.0900
     32 H32        -9.5512    3.4630   52.4344 H       1  ZINC000542980334    0.1500
     33 H33       -10.3592    1.5124   53.6996 H       1  ZINC000542980334    0.1500
     34 H34        -9.1954   -0.6486   53.5082 H       1  ZINC000542980334    0.1500
     35 H35        -2.3422    3.4513   48.6337 H       1  ZINC000542980334    0.0800
     36 H36        -2.3394    4.9662   49.5731 H       1  ZINC000542980334    0.0800
     37 H37        -0.6070    2.5026   50.0780 H       1  ZINC000542980334    0.0800
     38 H38        -0.0542    4.0857   49.4791 H       1  ZINC000542980334    0.0900
     39 H39         0.3886    3.8741   51.9016 H       1  ZINC000542980334    0.0800
     40 H40        -0.8233    5.1416   51.5974 H       1  ZINC000542980334    0.0800
     41 H41         0.6604    4.2659   53.9168 H       1  ZINC000542980334    0.1900
     42 H42         0.1481    4.8956   56.4134 H       1  ZINC000542980334    0.1600
     43 H43        -3.2626    4.7042   52.1346 H       1  ZINC000542980334    0.0800
     44 H44        -3.7615    3.0472   52.5620 H       1  ZINC000542980334    0.1100
@<TRIPOS>BOND
     1     1     2    2
     2     2     3   am
     3     2    13   am
     4     3     4    1
     5     3    29    1
     6     4     5    1
     7     4    30    1
     8     4    31    1
     9     5    11   ar
    10     5     6   ar
    11     6     7    1
    12     6     8   ar
    13     8     9   ar
    14     8    32    1
    15     9    10   ar
    16     9    33    1
    17    10    11   ar
    18    10    34    1
    19    11    12    1
    20    13    28    1
    21    13    14    1
    22    14    15    1
    23    14    35    1
    24    14    36    1
    25    15    16    1
    26    15    37    1
    27    15    38    1
    28    16    17    1
    29    16    39    1
    30    16    40    1
    31    17    18    1
    32    17    19    1
    33    17    28    1
    34    19    27    1
    35    19    20    1
    36    20    21    2
    37    20    41    1
    38    21    22    1
    39    21    42    1
    40    22    23    1
    41    22    27    2
    42    23    24    1
    43    23    25    1
    44    23    26    1
    45    28    43    1
    46    28    44    1
@<TRIPOS>SUBSTRUCTURE
     1 ZINC000542980334        1 TEMP              0 ****  ****    0 ROOT


##########                                Name:    ZINC000499369364
##########                DOCK_Rotatable_Bonds:                   9
##########                         Heavy_Atoms:                  25
##########                    Molecular_Weight:             384.527
##########                DOCK_Rotatable_Bonds:                   9
##########                       Formal_Charge:        -5.88596e-07
##########                     HBond_Acceptors:                  10
##########                        HBond_Donors:                   1
##########                         Heavy_Atoms:                  25
##########                          Grid_Score:          -29.758278
##########                     Grid_vdw_energy:          -28.514166
##########                      Grid_es_energy:           -1.244112
##########           Internal_energy_repulsive:           25.854858

@<TRIPOS>MOLECULE
ZINC000499369364
 49 51 1 0 0
SMALL
USER_CHARGES


@<TRIPOS>ATOM
      1 C1         -9.4647    4.0593   48.5613 C.3     1  ZINC000499369364   -0.1500
      2 C2         -9.0764    5.1955   49.5097 C.3     1  ZINC000499369364   -0.1000
      3 C3         -9.6585    6.5126   48.9928 C.3     1  ZINC000499369364   -0.1500
      4 C4         -9.6308    4.9060   50.9061 C.3     1  ZINC000499369364    0.1500
      5 H5         -9.4975    5.7833   51.5390 H       1  ZINC000499369364    0.0900
      6 C6        -11.1204    4.5720   50.8043 C.3     1  ZINC000499369364   -0.1700
      7 N7         -8.9142    3.7693   51.4898 N.am    1  ZINC000499369364   -0.7200
      8 C8         -8.6811    3.7291   52.8167 C.2     1  ZINC000499369364    0.5100
      9 O9         -9.0659    4.6332   53.5276 O.2     1  ZINC000499369364   -0.5100
     10 C10        -7.9425    2.5608   53.4170 C.3     1  ZINC000499369364    0.1200
     11 H11        -7.4040    2.9043   54.3002 H       1  ZINC000499369364    0.1200
     12 C12        -8.9713    1.4905   53.8472 C.3     1  ZINC000499369364   -0.0800
     13 S13        -8.9147    0.3368   52.4123 S.3     1  ZINC000499369364   -0.2400
     14 C14        -7.1336    0.6503   52.0693 C.3     1  ZINC000499369364    0.1400
     15 N15        -6.9795    2.0666   52.4446 N.am    1  ZINC000499369364   -0.6000
     16 C16        -6.0132    2.8505   51.9269 C.2     1  ZINC000499369364    0.5600
     17 O17        -5.9261    4.0111   52.2682 O.2     1  ZINC000499369364   -0.5000
     18 C18        -5.0409    2.2850   50.9240 C.3     1  ZINC000499369364   -0.1500
     19 S19        -3.4774    3.1918   51.0219 S.3     1  ZINC000499369364    0.1300
     20 C20        -2.7379    2.6915   49.5029 C.2     1  ZINC000499369364    0.2000
     21 N21        -3.3479    2.1184   48.4881 N.2     1  ZINC000499369364   -0.3400
     22 N22        -2.5168    1.8849   47.5373 N.2     1  ZINC000499369364   -0.0300
     23 N23        -1.3359    2.2835   47.8665 N.2     1  ZINC000499369364   -0.0800
     24 N24        -1.4359    2.8298   49.1580 N.pl3   1  ZINC000499369364   -0.3300
     25 C25        -0.3602    3.4150   49.9620 C.3     1  ZINC000499369364    0.0500
     26 C26         0.6263    2.4541   50.6288 C.3     1  ZINC000499369364   -0.1500
     27 C27         1.0682    3.2924   49.4275 C.3     1  ZINC000499369364   -0.1600
     28 H28        -9.0699    4.2655   47.5665 H       1  ZINC000499369364    0.0600
     29 H29        -9.0500    3.1210   48.9296 H       1  ZINC000499369364    0.0600
     30 H30       -10.5509    3.9821   48.5123 H       1  ZINC000499369364    0.0600
     31 H31        -7.9903    5.2727   49.5587 H       1  ZINC000499369364    0.0800
     32 H32        -9.2637    6.7189   47.9980 H       1  ZINC000499369364    0.0600
     33 H33       -10.7447    6.4354   48.9438 H       1  ZINC000499369364    0.0600
     34 H34        -9.3821    7.3220   49.6686 H       1  ZINC000499369364    0.0500
     35 H35       -11.2536    3.6947   50.1713 H       1  ZINC000499369364    0.0600
     36 H36       -11.5153    4.3657   51.7991 H       1  ZINC000499369364    0.0600
     37 H37       -11.6536    5.4177   50.3699 H       1  ZINC000499369364    0.0700
     38 H38        -8.6075    3.0455   50.9214 H       1  ZINC000499369364    0.4000
     39 H39        -8.6569    0.9911   54.7637 H       1  ZINC000499369364    0.1200
     40 H40        -9.9643    1.9253   53.9611 H       1  ZINC000499369364    0.1300
     41 H41        -6.5025    0.0137   52.6893 H       1  ZINC000499369364    0.1100
     42 H42        -6.9118    0.5043   51.0120 H       1  ZINC000499369364    0.1200
     43 H43        -4.8643    1.2319   51.1429 H       1  ZINC000499369364    0.1300
     44 H44        -5.4555    2.3831   49.9207 H       1  ZINC000499369364    0.1300
     45 H45        -0.6190    4.3258   50.5019 H       1  ZINC000499369364    0.1600
     46 H46         1.0166    2.7326   51.6077 H       1  ZINC000499369364    0.1200
     47 H47         0.4749    1.3866   50.4692 H       1  ZINC000499369364    0.1200
     48 H48         1.2075    2.7762   48.4776 H       1  ZINC000499369364    0.1100
     49 H49         1.7491    4.1223   49.6160 H       1  ZINC000499369364    0.1200
@<TRIPOS>BOND
     1     1     2    1
     2     1    28    1
     3     1    29    1
     4     1    30    1
     5     2     3    1
     6     2     4    1
     7     2    31    1
     8     3    32    1
     9     3    33    1
    10     3    34    1
    11     4     5    1
    12     4     6    1
    13     4     7    1
    14     6    35    1
    15     6    36    1
    16     6    37    1
    17     7     8   am
    18     7    38    1
    19     8     9    2
    20     8    10    1
    21    10    11    1
    22    10    15    1
    23    10    12    1
    24    12    13    1
    25    12    39    1
    26    12    40    1
    27    13    14    1
    28    14    15    1
    29    14    41    1
    30    14    42    1
    31    15    16   am
    32    16    17    2
    33    16    18    1
    34    18    19    1
    35    18    43    1
    36    18    44    1
    37    19    20    1
    38    20    24    1
    39    20    21    2
    40    21    22    1
    41    22    23    2
    42    23    24    1
    43    24    25    1
    44    25    27    1
    45    25    26    1
    46    25    45    1
    47    26    27    1
    48    26    46    1
    49    26    47    1
    50    27    48    1
    51    27    49    1
@<TRIPOS>SUBSTRUCTURE
     1 ZINC000499369364        1 TEMP              0 ****  ****    0 ROOT


##########                                Name:    ZINC001061022329
##########                DOCK_Rotatable_Bonds:                   7
##########                         Heavy_Atoms:                  27
##########                    Molecular_Weight:             374.523
##########                DOCK_Rotatable_Bonds:                   7
##########                       Formal_Charge:           0.0800005
##########                     HBond_Acceptors:                   5
##########                        HBond_Donors:                   0
##########                         Heavy_Atoms:                  27
##########                          Grid_Score:          -29.729488
##########                     Grid_vdw_energy:          -28.506840
##########                      Grid_es_energy:           -1.222648
##########           Internal_energy_repulsive:           22.010147

@<TRIPOS>MOLECULE
ZINC001061022329
 61 64 1 0 0
SMALL
USER_CHARGES


@<TRIPOS>ATOM
      1 C1         -8.6223    1.8587   53.5708 C.3     1  ZINC001061022329   -0.1500
      2 C2         -7.4290    2.3783   52.7664 C.3     1  ZINC001061022329   -0.1200
      3 C3         -7.2098    3.8600   53.0786 C.3     1  ZINC001061022329    0.0800
      4 H4         -8.1715    4.3383   53.2645 H       1  ZINC001061022329    0.0600
      5 C5         -6.3251    3.9943   54.3196 C.3     1  ZINC001061022329   -0.1800
      6 O6         -6.5707    4.4915   51.9674 O.3     1  ZINC001061022329   -0.3500
      7 C7         -5.4226    3.7923   51.4828 C.3     1  ZINC001061022329    0.0500
      8 C8         -4.2706    4.7537   51.3434 C.2     1  ZINC001061022329    0.5200
      9 O9         -4.4285    5.9297   51.5945 O.2     1  ZINC001061022329   -0.5100
     10 N10        -3.0649    4.3068   50.9398 N.am    1  ZINC001061022329   -0.6100
     11 C11        -1.9339    5.2341   50.8046 C.3     1  ZINC001061022329    0.1100
     12 C12        -1.3783    5.1299   49.3792 C.3     1  ZINC001061022329   -0.1200
     13 C13        -1.0883    3.6649   49.0617 C.3     1  ZINC001061022329   -0.0900
     14 C14        -0.3236    3.4605   47.7467 C.3     1  ZINC001061022329    0.1200
     15 N15         0.4726    2.4604   48.4859 N.am    1  ZINC001061022329   -0.6400
     16 C16         1.1961    1.3801   48.1306 C.2     1  ZINC001061022329    0.5400
     17 O17         1.2826    1.0655   46.9625 O.2     1  ZINC001061022329   -0.5300
     18 C18         1.8976    0.5632   49.1850 C.3     1  ZINC001061022329   -0.0900
     19 H19         1.2054    0.3507   49.9997 H       1  ZINC001061022329    0.1000
     20 C20         3.0953    1.3479   49.7248 C.3     1  ZINC001061022329   -0.1000
     21 C21         4.3843    0.5555   49.4725 C.3     1  ZINC001061022329   -0.0600
     22 H22         5.2560    1.1201   49.8032 H       1  ZINC001061022329    0.0800
     23 C23         4.4661    0.2608   47.9820 C.2     1  ZINC001061022329   -0.1800
     24 C24         3.4244   -0.4217   47.5124 C.2     1  ZINC001061022329   -0.1300
     25 C25         2.3835   -0.7556   48.5701 C.3     1  ZINC001061022329   -0.0400
     26 H26         1.5572   -1.3181   48.1355 H       1  ZINC001061022329    0.0900
     27 C27         3.0796   -1.5720   49.6679 C.3     1  ZINC001061022329   -0.1100
     28 C28         4.2841   -0.7800   50.2224 C.3     1  ZINC001061022329   -0.1100
     29 C29         0.1592    3.1186   49.7699 C.3     1  ZINC001061022329    0.1100
     30 C30        -2.3136    2.7653   49.2028 C.3     1  ZINC001061022329   -0.1100
     31 C31        -2.8617    2.8844   50.6347 C.3     1  ZINC001061022329    0.1100
     32 H32        -8.4233    1.9801   54.6356 H       1  ZINC001061022329    0.0500
     33 H33        -9.5152    2.4227   53.3014 H       1  ZINC001061022329    0.0600
     34 H34        -8.7784    0.8031   53.3483 H       1  ZINC001061022329    0.0600
     35 H35        -6.5360    1.8142   53.0358 H       1  ZINC001061022329    0.0800
     36 H36        -7.6279    2.2569   51.7016 H       1  ZINC001061022329    0.0700
     37 H37        -6.1690    5.0498   54.5420 H       1  ZINC001061022329    0.0600
     38 H38        -6.8126    3.5126   55.1672 H       1  ZINC001061022329    0.0700
     39 H39        -5.3634    3.5161   54.1337 H       1  ZINC001061022329    0.0700
     40 H40        -5.1544    3.0032   52.1853 H       1  ZINC001061022329    0.0800
     41 H41        -5.6484    3.3524   50.5113 H       1  ZINC001061022329    0.0800
     42 H42        -2.2727    6.2532   50.9911 H       1  ZINC001061022329    0.0900
     43 H43        -1.1559    4.9686   51.5204 H       1  ZINC001061022329    0.0800
     44 H44        -2.1122    5.5175   48.6728 H       1  ZINC001061022329    0.0800
     45 H45        -0.4574    5.7083   49.3039 H       1  ZINC001061022329    0.0800
     46 H46        -0.9301    3.0357   46.9468 H       1  ZINC001061022329    0.0800
     47 H47         0.2493    4.3324   47.4310 H       1  ZINC001061022329    0.0900
     48 H48         3.1562    2.3113   49.2186 H       1  ZINC001061022329    0.0700
     49 H49         2.9714    1.5081   50.7959 H       1  ZINC001061022329    0.0700
     50 H50         5.2926    0.5761   47.3626 H       1  ZINC001061022329    0.1200
     51 H51         3.3271   -0.7112   46.4765 H       1  ZINC001061022329    0.1200
     52 H52         2.3765   -1.7644   50.4783 H       1  ZINC001061022329    0.0700
     53 H53         3.4234   -2.5195   49.2530 H       1  ZINC001061022329    0.0700
     54 H54         5.1983   -1.3524   50.0652 H       1  ZINC001061022329    0.0700
     55 H55         4.1439   -0.6056   51.2891 H       1  ZINC001061022329    0.0700
     56 H56         0.8756    3.8890   50.0554 H       1  ZINC001061022329    0.0900
     57 H57        -0.0635    2.4221   50.5782 H       1  ZINC001061022329    0.0800
     58 H58        -3.0779    3.0761   48.4906 H       1  ZINC001061022329    0.0800
     59 H59        -2.0308    1.7310   49.0071 H       1  ZINC001061022329    0.0800
     60 H60        -2.1476    2.4532   51.3363 H       1  ZINC001061022329    0.0700
     61 H61        -3.8126    2.3567   50.7071 H       1  ZINC001061022329    0.1000
@<TRIPOS>BOND
     1     1     2    1
     2     1    32    1
     3     1    33    1
     4     1    34    1
     5     2     3    1
     6     2    35    1
     7     2    36    1
     8     3     4    1
     9     3     5    1
    10     3     6    1
    11     5    37    1
    12     5    38    1
    13     5    39    1
    14     6     7    1
    15     7     8    1
    16     7    40    1
    17     7    41    1
    18     8     9    2
    19     8    10   am
    20    10    31    1
    21    10    11    1
    22    11    12    1
    23    11    42    1
    24    11    43    1
    25    12    13    1
    26    12    44    1
    27    12    45    1
    28    13    29    1
    29    13    14    1
    30    13    30    1
    31    14    15    1
    32    14    46    1
    33    14    47    1
    34    15    16   am
    35    15    29    1
    36    16    17    2
    37    16    18    1
    38    18    19    1
    39    18    25    1
    40    18    20    1
    41    20    21    1
    42    20    48    1
    43    20    49    1
    44    21    22    1
    45    21    28    1
    46    21    23    1
    47    23    24    2
    48    23    50    1
    49    24    25    1
    50    24    51    1
    51    25    26    1
    52    25    27    1
    53    27    28    1
    54    27    52    1
    55    27    53    1
    56    28    54    1
    57    28    55    1
    58    29    56    1
    59    29    57    1
    60    30    31    1
    61    30    58    1
    62    30    59    1
    63    31    60    1
    64    31    61    1
@<TRIPOS>SUBSTRUCTURE
     1 ZINC001061022329        1 TEMP              0 ****  ****    0 ROOT


##########                                Name:    ZINC001135312623
##########                DOCK_Rotatable_Bonds:                   3
##########                         Heavy_Atoms:                  25
##########                    Molecular_Weight:             341.323
##########                DOCK_Rotatable_Bonds:                   3
##########                       Formal_Charge:        -1.78814e-07
##########                     HBond_Acceptors:                   8
##########                        HBond_Donors:                   2
##########                         Heavy_Atoms:                  25
##########                          Grid_Score:          -29.722569
##########                     Grid_vdw_energy:          -30.036421
##########                      Grid_es_energy:            0.313853
##########           Internal_energy_repulsive:            8.545567

@<TRIPOS>MOLECULE
ZINC001135312623
 40 42 1 0 0
SMALL
USER_CHARGES


@<TRIPOS>ATOM
      1 C1         -5.3453    4.9650   53.0582 C.3     1  ZINC001135312623   -0.1300
      2 C2         -5.9804    3.6104   52.8774 C.ar    1  ZINC001135312623   -0.0600
      3 C3         -7.1785    3.3202   53.4994 C.ar    1  ZINC001135312623   -0.1000
      4 C4         -7.7619    2.0771   53.3344 C.ar    1  ZINC001135312623   -0.0300
      5 C5         -9.0696    1.7639   54.0148 C.3     1  ZINC001135312623   -0.1300
      6 C6         -7.1481    1.1213   52.5461 C.ar    1  ZINC001135312623   -0.0200
      7 N7         -7.7760   -0.2078   52.3722 N.pl3   1  ZINC001135312623    0.0200
      8 O8         -7.0797   -1.2031   52.2820 O.2     1  ZINC001135312623   -0.1500
      9 O9         -8.9888   -0.3063   52.3195 O.2     1  ZINC001135312623   -0.1500
     10 C10        -5.9500    1.4055   51.9203 C.ar    1  ZINC001135312623   -0.0700
     11 C11        -5.3640    2.6543   52.0800 C.ar    1  ZINC001135312623    0.1500
     12 N12        -4.1510    2.9453   51.4479 N.am    1  ZINC001135312623   -0.6600
     13 C13        -3.9920    2.6738   50.1373 C.2     1  ZINC001135312623    0.5600
     14 O14        -4.9032    2.1757   49.5047 O.2     1  ZINC001135312623   -0.5000
     15 C15        -2.7122    2.9809   49.4702 C.ar    1  ZINC001135312623   -0.1600
     16 C16        -1.7822    3.8185   50.0919 C.ar    1  ZINC001135312623   -0.0400
     17 C17        -0.5878    4.1054   49.4682 C.ar    1  ZINC001135312623   -0.1500
     18 C18        -0.3087    3.5607   48.2213 C.ar    1  ZINC001135312623    0.2000
     19 N19         0.8932    3.8408   47.5709 N.am    1  ZINC001135312623   -0.6700
     20 C20         1.0180    3.5742   46.2553 C.2     1  ZINC001135312623    0.6600
     21 O21         2.0735    3.7958   45.6956 O.2     1  ZINC001135312623   -0.4900
     22 O22        -0.0116    3.0658   45.5546 O.3     1  ZINC001135312623   -0.3400
     23 C23        -0.9003    2.1464   46.2469 C.3     1  ZINC001135312623    0.1100
     24 C24        -1.2341    2.7235   47.5999 C.ar    1  ZINC001135312623   -0.1800
     25 C25        -2.4253    2.4293   48.2171 C.ar    1  ZINC001135312623    0.0000
     26 H26        -5.7064    5.6419   52.2840 H       1  ZINC001135312623    0.0900
     27 H27        -5.6079    5.3615   54.0390 H       1  ZINC001135312623    0.0800
     28 H28        -4.2619    4.8714   52.9824 H       1  ZINC001135312623    0.0700
     29 H29        -7.6605    4.0646   54.1158 H       1  ZINC001135312623    0.1500
     30 H30        -9.8948    2.1141   53.3948 H       1  ZINC001135312623    0.0900
     31 H31        -9.1551    0.6869   54.1593 H       1  ZINC001135312623    0.0800
     32 H32        -9.1045    2.2642   54.9826 H       1  ZINC001135312623    0.0800
     33 H33        -5.4711    0.6584   51.3047 H       1  ZINC001135312623    0.1700
     34 H34        -3.4241    3.3426   51.9525 H       1  ZINC001135312623    0.4200
     35 H35        -2.0001    4.2414   51.0615 H       1  ZINC001135312623    0.1400
     36 H36         0.1307    4.7532   49.9482 H       1  ZINC001135312623    0.1500
     37 H37         1.6353    4.2256   48.0628 H       1  ZINC001135312623    0.4300
     38 H38        -1.8152    2.0170   45.6686 H       1  ZINC001135312623    0.1300
     39 H39        -0.4049    1.1835   46.3721 H       1  ZINC001135312623    0.1000
     40 H40        -3.1392    1.7778   47.7350 H       1  ZINC001135312623    0.1500
@<TRIPOS>BOND
     1     1     2    1
     2     1    26    1
     3     1    27    1
     4     1    28    1
     5     2    11   ar
     6     2     3   ar
     7     3     4   ar
     8     3    29    1
     9     4     5    1
    10     4     6   ar
    11     5    30    1
    12     5    31    1
    13     5    32    1
    14     6     7    1
    15     6    10   ar
    16     7     8    2
    17     7     9    2
    18    10    11   ar
    19    10    33    1
    20    11    12    1
    21    12    13   am
    22    12    34    1
    23    13    14    2
    24    13    15    1
    25    15    25   ar
    26    15    16   ar
    27    16    17   ar
    28    16    35    1
    29    17    18   ar
    30    17    36    1
    31    18    24   ar
    32    18    19    1
    33    19    20   am
    34    19    37    1
    35    20    21    2
    36    20    22    1
    37    22    23    1
    38    23    24    1
    39    23    38    1
    40    23    39    1
    41    24    25   ar
    42    25    40    1
@<TRIPOS>SUBSTRUCTURE
     1 ZINC001135312623        1 TEMP              0 ****  ****    0 ROOT


##########                                Name:    ZINC000963156778
##########                DOCK_Rotatable_Bonds:                   6
##########                         Heavy_Atoms:                  24
##########                    Molecular_Weight:             349.414
##########                DOCK_Rotatable_Bonds:                   6
##########                       Formal_Charge:         -0.00999984
##########                     HBond_Acceptors:                   9
##########                        HBond_Donors:                   2
##########                         Heavy_Atoms:                  24
##########                          Grid_Score:          -29.680435
##########                     Grid_vdw_energy:          -28.797764
##########                      Grid_es_energy:           -0.882672
##########           Internal_energy_repulsive:            5.518917

@<TRIPOS>MOLECULE
ZINC000963156778
 43 46 1 0 0
SMALL
USER_CHARGES


@<TRIPOS>ATOM
      1 C1        -15.4825   -3.0774   58.5723 C.3     1  ZINC000963156778   -0.0800
      2 C2        -15.1081   -4.0012   57.4420 C.2     1  ZINC000963156778    0.0300
      3 C3        -14.8560   -3.5821   56.1801 C.2     1  ZINC000963156778   -0.2600
      4 C4        -14.8901   -2.1726   55.6479 C.3     1  ZINC000963156778    0.1300
      5 N5        -13.9441   -2.0479   54.5309 N.3     1  ZINC000963156778   -0.5000
      6 C6        -12.5789   -1.7292   55.0224 C.3     1  ZINC000963156778    0.0600
      7 C7        -11.8608   -1.1119   53.8032 C.3     1  ZINC000963156778   -0.1700
      8 H8        -11.0118   -1.6554   53.3887 H       1  ZINC000963156778    0.1200
      9 C9        -12.9909   -0.5644   52.9074 C.3     1  ZINC000963156778   -0.1700
     10 H10       -12.9760   -0.6878   51.8244 H       1  ZINC000963156778    0.1200
     11 C11       -14.2968   -0.8968   53.6607 C.3     1  ZINC000963156778    0.0600
     12 C12       -11.9615    0.4006   53.5963 C.3     1  ZINC000963156778    0.1200
     13 H13       -12.3192    1.0036   54.4309 H       1  ZINC000963156778    0.1400
     14 N14       -10.9576    1.0388   52.7413 N.am    1  ZINC000963156778   -0.7000
     15 C15        -9.8311    1.5413   53.2845 C.2     1  ZINC000963156778    0.5100
     16 O16        -9.6480    1.4639   54.4809 O.2     1  ZINC000963156778   -0.5000
     17 C17        -8.7991    2.1993   52.4052 C.3     1  ZINC000963156778   -0.1300
     18 C18        -7.4234    1.5953   52.6938 C.3     1  ZINC000963156778   -0.1100
     19 H19        -7.2385    1.5605   53.7675 H       1  ZINC000963156778    0.1300
     20 C20        -6.3174    2.3975   51.9783 C.3     1  ZINC000963156778   -0.1600
     21 C21        -5.6953    1.3857   51.0410 C.2     1  ZINC000963156778    0.5300
     22 O22        -4.7753    1.6041   50.2822 O.2     1  ZINC000963156778   -0.4800
     23 N23        -6.3214    0.2108   51.1827 N.am    1  ZINC000963156778   -0.6900
     24 C24        -7.3113    0.2128   52.0892 C.2     1  ZINC000963156778    0.5200
     25 O25        -8.0044   -0.7401   52.3739 O.2     1  ZINC000963156778   -0.4500
     26 S26       -14.4868   -5.0279   55.3223 S.3     1  ZINC000963156778    0.4500
     27 N27       -14.6672   -5.9897   56.5438 N.2     1  ZINC000963156778   -0.2900
     28 N28       -14.9842   -5.3062   57.5733 N.2     1  ZINC000963156778   -0.2400
     29 H29       -14.5788   -2.7372   59.0780 H       1  ZINC000963156778    0.0900
     30 H30       -16.0222   -2.2176   58.1753 H       1  ZINC000963156778    0.0800
     31 H31       -16.1172   -3.6092   59.2812 H       1  ZINC000963156778    0.0800
     32 H32       -15.8964   -1.9398   55.2996 H       1  ZINC000963156778    0.1000
     33 H33       -14.6102   -1.4783   56.4402 H       1  ZINC000963156778    0.0700
     34 H34       -12.6275   -1.0095   55.8396 H       1  ZINC000963156778    0.0600
     35 H35       -12.0691   -2.6373   55.3443 H       1  ZINC000963156778    0.0800
     36 H36       -15.0803   -1.1781   52.9571 H       1  ZINC000963156778    0.1000
     37 H37       -14.6141   -0.0468   54.2646 H       1  ZINC000963156778    0.0500
     38 H38       -11.1036    1.0997   51.7844 H       1  ZINC000963156778    0.4000
     39 H39        -9.0557    2.0354   51.3587 H       1  ZINC000963156778    0.1000
     40 H40        -8.7763    3.2697   52.6104 H       1  ZINC000963156778    0.1200
     41 H41        -6.7474    3.2269   51.4168 H       1  ZINC000963156778    0.1200
     42 H42        -5.5809    2.7596   52.6957 H       1  ZINC000963156778    0.1300
     43 H43        -6.0788   -0.5780   50.6731 H       1  ZINC000963156778    0.4200
@<TRIPOS>BOND
     1     1     2    1
     2     1    29    1
     3     1    30    1
     4     1    31    1
     5     2    28    1
     6     2     3    2
     7     3     4    1
     8     3    26    1
     9     4     5    1
    10     4    32    1
    11     4    33    1
    12     5    11    1
    13     5     6    1
    14     6     7    1
    15     6    34    1
    16     6    35    1
    17     7     8    1
    18     7    12    1
    19     7     9    1
    20     9    10    1
    21     9    11    1
    22     9    12    1
    23    11    36    1
    24    11    37    1
    25    12    13    1
    26    12    14    1
    27    14    15   am
    28    14    38    1
    29    15    16    2
    30    15    17    1
    31    17    18    1
    32    17    39    1
    33    17    40    1
    34    18    19    1
    35    18    24    1
    36    18    20    1
    37    20    21    1
    38    20    41    1
    39    20    42    1
    40    21    22    2
    41    21    23   am
    42    23    24   am
    43    23    43    1
    44    24    25    2
    45    26    27    1
    46    27    28    2
@<TRIPOS>SUBSTRUCTURE
     1 ZINC000963156778        1 TEMP              0 ****  ****    0 ROOT


##########                                Name:    ZINC000533131987
##########                DOCK_Rotatable_Bonds:                  11
##########                         Heavy_Atoms:                  30
##########                    Molecular_Weight:             419.403
##########                DOCK_Rotatable_Bonds:                  11
##########                       Formal_Charge:                0.01
##########                     HBond_Acceptors:                   9
##########                        HBond_Donors:                   3
##########                         Heavy_Atoms:                  30
##########                          Grid_Score:          -29.676203
##########                     Grid_vdw_energy:          -28.027481
##########                      Grid_es_energy:           -1.648721
##########           Internal_energy_repulsive:           27.271641

@<TRIPOS>MOLECULE
ZINC000533131987
 50 52 1 0 0
SMALL
USER_CHARGES


@<TRIPOS>ATOM
      1 O1         -7.9984    3.5737   51.5352 O.2     1  ZINC000533131987   -0.5700
      2 C2         -7.9910    2.3933   51.8264 C.2     1  ZINC000533131987    0.7100
      3 N3         -9.1535    1.7228   51.9519 N.am    1  ZINC000533131987   -0.7400
      4 C4        -10.4260    2.4178   51.7432 C.3     1  ZINC000533131987    0.1400
      5 C5        -11.5608    1.3939   51.6728 C.3     1  ZINC000533131987   -0.0900
      6 H6        -11.2577    0.5586   51.0414 H       1  ZINC000533131987    0.0900
      7 C7        -11.8738    0.8821   53.0802 C.3     1  ZINC000533131987    0.0800
      8 O8        -12.8942   -0.1158   53.0081 O.3     1  ZINC000533131987   -0.5600
      9 C9        -12.8077    2.0543   51.0812 C.3     1  ZINC000533131987   -0.0900
     10 C10       -12.6481    2.1819   49.5881 C.ar    1  ZINC000533131987    0.0000
     11 C11       -11.9938    3.2760   49.0540 C.ar    1  ZINC000533131987   -0.1100
     12 C12       -11.8474    3.3930   47.6842 C.ar    1  ZINC000533131987   -0.0800
     13 C13       -12.3548    2.4157   46.8490 C.ar    1  ZINC000533131987   -0.1300
     14 C14       -13.0085    1.3208   47.3832 C.ar    1  ZINC000533131987   -0.0700
     15 C15       -13.1512    1.2017   48.7528 C.ar    1  ZINC000533131987   -0.1700
     16 C16       -13.8636    0.0083   49.3352 C.3     1  ZINC000533131987    0.5100
     17 F17       -15.0486    0.4267   49.9498 F       1  ZINC000533131987   -0.1800
     18 F18       -14.1635   -0.8999   48.3141 F       1  ZINC000533131987   -0.1700
     19 F19       -13.0401   -0.6101   50.2822 F       1  ZINC000533131987   -0.1800
     20 N20        -6.8202    1.7539   52.0184 N.am    1  ZINC000533131987   -0.6900
     21 C21        -5.6130    2.4502   51.8881 C.ar    1  ZINC000533131987    0.1600
     22 C22        -5.1641    3.2620   52.9226 C.ar    1  ZINC000533131987   -0.1000
     23 C23        -3.9724    3.9518   52.7989 C.ar    1  ZINC000533131987   -0.1000
     24 C24        -3.2207    3.8386   51.6473 C.ar    1  ZINC000533131987   -0.1000
     25 C25        -3.6632    3.0255   50.6022 C.ar    1  ZINC000533131987    0.0000
     26 C26        -2.8596    2.9020   49.3673 C.2     1  ZINC000533131987    0.2300
     27 N27        -2.9062    1.9014   48.5198 N.2     1  ZINC000533131987   -0.4700
     28 C28        -2.0386    2.1411   47.5250 C.2     1  ZINC000533131987   -0.0400
     29 C29        -1.4444    3.3228   47.7721 C.2     1  ZINC000533131987   -0.0700
     30 O30        -1.9629    3.7988   48.9214 O.3     1  ZINC000533131987   -0.2000
     31 C31        -4.8623    2.3253   50.7293 C.ar    1  ZINC000533131987   -0.1000
     32 H32        -9.1474    0.7801   52.1804 H       1  ZINC000533131987    0.4000
     33 H33       -10.6059    3.1031   52.5715 H       1  ZINC000533131987    0.0700
     34 H34       -10.3848    2.9791   50.8097 H       1  ZINC000533131987    0.0800
     35 H35       -10.9739    0.4505   53.5184 H       1  ZINC000533131987    0.0400
     36 H36       -12.2185    1.7100   53.6997 H       1  ZINC000533131987    0.0600
     37 H37       -13.4694   -0.0351   52.2349 H       1  ZINC000533131987    0.3800
     38 H38       -13.6823    1.4424   51.3020 H       1  ZINC000533131987    0.0800
     39 H39       -12.9369    3.0442   51.5187 H       1  ZINC000533131987    0.0900
     40 H40       -11.5972    4.0396   49.7068 H       1  ZINC000533131987    0.1300
     41 H41       -11.3367    4.2483   47.2669 H       1  ZINC000533131987    0.1300
     42 H42       -12.2411    2.5075   45.7788 H       1  ZINC000533131987    0.1300
     43 H43       -13.4053    0.5574   46.7305 H       1  ZINC000533131987    0.1300
     44 H44        -6.8141    0.8112   52.2468 H       1  ZINC000533131987    0.4100
     45 H45        -5.7484    3.3547   53.8262 H       1  ZINC000533131987    0.1500
     46 H46        -3.6287    4.5816   53.6061 H       1  ZINC000533131987    0.1400
     47 H47        -2.2905    4.3794   51.5543 H       1  ZINC000533131987    0.1300
     48 H48        -1.8504    1.4996   46.6768 H       1  ZINC000533131987    0.1900
     49 H49        -0.6944    3.8026   47.1609 H       1  ZINC000533131987    0.2200
     50 H50        -5.2096    1.6948   49.9242 H       1  ZINC000533131987    0.1400
@<TRIPOS>BOND
     1     1     2    2
     2     2     3   am
     3     2    20   am
     4     3     4    1
     5     3    32    1
     6     4     5    1
     7     4    33    1
     8     4    34    1
     9     5     6    1
    10     5     7    1
    11     5     9    1
    12     7     8    1
    13     7    35    1
    14     7    36    1
    15     8    37    1
    16     9    10    1
    17     9    38    1
    18     9    39    1
    19    10    15   ar
    20    10    11   ar
    21    11    12   ar
    22    11    40    1
    23    12    13   ar
    24    12    41    1
    25    13    14   ar
    26    13    42    1
    27    14    15   ar
    28    14    43    1
    29    15    16    1
    30    16    17    1
    31    16    18    1
    32    16    19    1
    33    20    21    1
    34    20    44    1
    35    21    31   ar
    36    21    22   ar
    37    22    23   ar
    38    22    45    1
    39    23    24   ar
    40    23    46    1
    41    24    25   ar
    42    24    47    1
    43    25    26    1
    44    25    31   ar
    45    26    30    1
    46    26    27    2
    47    27    28    1
    48    28    29    2
    49    28    48    1
    50    29    30    1
    51    29    49    1
    52    31    50    1
@<TRIPOS>SUBSTRUCTURE
     1 ZINC000533131987        1 TEMP              0 ****  ****    0 ROOT


##########                                Name:    ZINC000263872566
##########                DOCK_Rotatable_Bonds:                   9
##########                         Heavy_Atoms:                  26
##########                    Molecular_Weight:             362.469
##########                DOCK_Rotatable_Bonds:                   9
##########                       Formal_Charge:           0.0300001
##########                     HBond_Acceptors:                   6
##########                        HBond_Donors:                   2
##########                         Heavy_Atoms:                  26
##########                          Grid_Score:          -29.664104
##########                     Grid_vdw_energy:          -27.799477
##########                      Grid_es_energy:           -1.864627
##########           Internal_energy_repulsive:           21.356415

@<TRIPOS>MOLECULE
ZINC000263872566
 56 57 1 0 0
SMALL
USER_CHARGES


@<TRIPOS>ATOM
      1 C1         -3.6263    3.9155   56.8403 C.3     1  ZINC000263872566   -0.1800
      2 C2         -4.0456    4.9866   55.8314 C.3     1  ZINC000263872566    0.1400
      3 H3         -5.0540    5.3295   56.0634 H       1  ZINC000263872566    0.0700
      4 O4         -3.1395    6.0892   55.9030 O.3     1  ZINC000263872566   -0.5600
      5 C5         -4.0203    4.4049   54.4414 C.ar    1  ZINC000263872566   -0.0800
      6 C6         -5.1525    4.4561   53.6500 C.ar    1  ZINC000263872566   -0.0900
      7 C7         -5.1294    3.9225   52.3750 C.ar    1  ZINC000263872566   -0.1000
      8 C8         -3.9738    3.3383   51.8912 C.ar    1  ZINC000263872566   -0.1100
      9 C9         -3.9486    2.7562   50.5013 C.3     1  ZINC000263872566    0.1800
     10 N10        -2.6910    3.1184   49.8430 N.am    1  ZINC000263872566   -0.7400
     11 C11        -2.3678    2.5657   48.6570 C.2     1  ZINC000263872566    0.7100
     12 O12        -3.1198    1.7665   48.1336 O.2     1  ZINC000263872566   -0.5900
     13 N13        -1.2107    2.8989   48.0512 N.am    1  ZINC000263872566   -0.6300
     14 C14        -0.2890    3.8586   48.6742 C.3     1  ZINC000263872566    0.1100
     15 C15         1.0997    3.2187   48.7679 C.3     1  ZINC000263872566   -0.1200
     16 C16         1.5322    2.7421   47.3794 C.3     1  ZINC000263872566   -0.0800
     17 C17         2.9124    2.1427   47.4617 C.2     1  ZINC000263872566    0.4700
     18 O18         3.8751    2.8594   47.6013 O.2     1  ZINC000263872566   -0.5000
     19 O19         3.0723    0.8124   47.3799 O.3     1  ZINC000263872566   -0.3500
     20 C20         3.7851    0.1661   48.4675 C.3     1  ZINC000263872566    0.1200
     21 C21         3.3970    0.8235   49.7935 C.3     1  ZINC000263872566   -0.1800
     22 C22         3.4171   -1.3184   48.5072 C.3     1  ZINC000263872566   -0.1400
     23 C23         5.2921    0.3122   48.2476 C.3     1  ZINC000263872566   -0.1800
     24 C24         0.5475    1.6869   46.8707 C.3     1  ZINC000263872566   -0.1300
     25 C25        -0.8446    2.3048   46.7583 C.3     1  ZINC000263872566    0.1300
     26 C26        -2.8411    3.2884   52.6820 C.ar    1  ZINC000263872566   -0.1000
     27 C27        -2.8632    3.8253   53.9556 C.ar    1  ZINC000263872566   -0.1100
     28 H28        -2.6181    3.5727   56.6082 H       1  ZINC000263872566    0.0700
     29 H29        -3.6448    4.3363   57.8456 H       1  ZINC000263872566    0.0600
     30 H30        -4.3176    3.0745   56.7857 H       1  ZINC000263872566    0.0700
     31 H31        -3.1045    6.5139   56.7711 H       1  ZINC000263872566    0.3800
     32 H32        -6.0554    4.9126   54.0280 H       1  ZINC000263872566    0.1300
     33 H33        -6.0142    3.9619   51.7570 H       1  ZINC000263872566    0.1300
     34 H34        -4.0283    1.6707   50.5605 H       1  ZINC000263872566    0.0800
     35 H35        -4.7864    3.1513   49.9268 H       1  ZINC000263872566    0.0800
     36 H36        -2.0910    3.7560   50.2605 H       1  ZINC000263872566    0.4000
     37 H37        -0.2351    4.7612   48.0655 H       1  ZINC000263872566    0.0800
     38 H38        -0.6438    4.1100   49.6737 H       1  ZINC000263872566    0.0800
     39 H39         1.8144    3.9530   49.1395 H       1  ZINC000263872566    0.0900
     40 H40         1.0634    2.3686   49.4493 H       1  ZINC000263872566    0.0800
     41 H41         1.5443    3.5884   46.6925 H       1  ZINC000263872566    0.1100
     42 H42         2.3234    0.7193   49.9500 H       1  ZINC000263872566    0.0600
     43 H43         3.9321    0.3383   50.6098 H       1  ZINC000263872566    0.0700
     44 H44         3.6592    1.8812   49.7650 H       1  ZINC000263872566    0.0800
     45 H45         3.6935   -1.7868   47.5627 H       1  ZINC000263872566    0.0700
     46 H46         3.9521   -1.8036   49.3237 H       1  ZINC000263872566    0.0800
     47 H47         2.3434   -1.4226   48.6640 H       1  ZINC000263872566    0.0700
     48 H48         5.5543    1.3699   48.2193 H       1  ZINC000263872566    0.0800
     49 H49         5.8272   -0.1729   49.0639 H       1  ZINC000263872566    0.0700
     50 H50         5.5686   -0.1560   47.3030 H       1  ZINC000263872566    0.0600
     51 H51         0.8691    1.3311   45.8919 H       1  ZINC000263872566    0.0900
     52 H52         0.5163    0.8513   47.5699 H       1  ZINC000263872566    0.0700
     53 H53        -1.5666    1.5330   46.4918 H       1  ZINC000263872566    0.1000
     54 H54        -0.8387    3.0822   45.9942 H       1  ZINC000263872566    0.0700
     55 H55        -1.9381    2.8322   52.3039 H       1  ZINC000263872566    0.1300
     56 H56        -1.9782    3.7863   54.5735 H       1  ZINC000263872566    0.1300
@<TRIPOS>BOND
     1     1     2    1
     2     1    28    1
     3     1    29    1
     4     1    30    1
     5     2     3    1
     6     2     4    1
     7     2     5    1
     8     4    31    1
     9     5    27   ar
    10     5     6   ar
    11     6     7   ar
    12     6    32    1
    13     7     8   ar
    14     7    33    1
    15     8     9    1
    16     8    26   ar
    17     9    10    1
    18     9    34    1
    19     9    35    1
    20    10    11   am
    21    10    36    1
    22    11    12    2
    23    11    13   am
    24    13    25    1
    25    13    14    1
    26    14    15    1
    27    14    37    1
    28    14    38    1
    29    15    16    1
    30    15    39    1
    31    15    40    1
    32    16    17    1
    33    16    24    1
    34    16    41    1
    35    17    18    2
    36    17    19    1
    37    19    20    1
    38    20    21    1
    39    20    22    1
    40    20    23    1
    41    21    42    1
    42    21    43    1
    43    21    44    1
    44    22    45    1
    45    22    46    1
    46    22    47    1
    47    23    48    1
    48    23    49    1
    49    23    50    1
    50    24    25    1
    51    24    51    1
    52    24    52    1
    53    25    53    1
    54    25    54    1
    55    26    27   ar
    56    26    55    1
    57    27    56    1
@<TRIPOS>SUBSTRUCTURE
     1 ZINC000263872566        1 TEMP              0 ****  ****    0 ROOT


##########                                Name:    ZINC001053433946
##########                DOCK_Rotatable_Bonds:                   6
##########                         Heavy_Atoms:                  24
##########                    Molecular_Weight:             337.419
##########                DOCK_Rotatable_Bonds:                   6
##########                       Formal_Charge:               -0.02
##########                     HBond_Acceptors:                   7
##########                        HBond_Donors:                   2
##########                         Heavy_Atoms:                  24
##########                          Grid_Score:          -29.652243
##########                     Grid_vdw_energy:          -28.851063
##########                      Grid_es_energy:           -0.801180
##########           Internal_energy_repulsive:           19.149115

@<TRIPOS>MOLECULE
ZINC001053433946
 51 54 1 0 0
SMALL
USER_CHARGES


@<TRIPOS>ATOM
      1 N1          5.3237   -0.8301   49.2683 N.am    1  ZINC001053433946   -0.8300
      2 C2          4.6811   -1.4125   50.2999 C.2     1  ZINC001053433946    0.5600
      3 O3          5.3040   -1.7771   51.2745 O.2     1  ZINC001053433946   -0.5500
      4 C4          3.1882   -1.6108   50.2423 C.3     1  ZINC001053433946   -0.1600
      5 H5          2.8034   -2.4534   50.8168 H       1  ZINC001053433946    0.1400
      6 C6          2.4802   -1.2682   48.9300 C.3     1  ZINC001053433946   -0.1300
      7 C7          2.3124   -0.3596   50.1504 C.3     1  ZINC001053433946   -0.1700
      8 H8          1.3513   -0.3791   50.6640 H       1  ZINC001053433946    0.1400
      9 C9          3.0080    0.9769   50.1237 C.2     1  ZINC001053433946    0.5400
     10 O10         3.9858    1.1657   50.8160 O.2     1  ZINC001053433946   -0.5200
     11 N11         2.5436    1.9626   49.3303 N.am    1  ZINC001053433946   -0.6100
     12 C12         3.2046    3.2762   49.2860 C.3     1  ZINC001053433946    0.0700
     13 C13         2.1533    4.3643   49.5285 C.3     1  ZINC001053433946    0.0500
     14 O14         1.0808    4.2036   48.5947 O.3     1  ZINC001053433946   -0.3400
     15 C15         0.4170    2.9461   48.6860 C.3     1  ZINC001053433946    0.0800
     16 C16        -0.4797    2.8086   49.9238 C.3     1  ZINC001053433946   -0.0100
     17 N17        -1.5668    3.3355   49.0679 N.3     1  ZINC001053433946   -0.4700
     18 C18        -2.8141    2.5896   49.2822 C.3     1  ZINC001053433946    0.0200
     19 C19        -3.3359    2.8637   50.6941 C.3     1  ZINC001053433946   -0.1200
     20 H20        -2.6737    2.3981   51.4240 H       1  ZINC001053433946    0.0800
     21 C21        -3.3842    4.3752   50.9376 C.3     1  ZINC001053433946   -0.1200
     22 C22        -3.9806    4.6392   52.3236 C.3     1  ZINC001053433946   -0.1600
     23 C23        -5.3660    3.9931   52.4058 C.3     1  ZINC001053433946    0.0600
     24 O24        -5.2539    2.5935   52.1393 O.3     1  ZINC001053433946   -0.3800
     25 C25        -4.7456    2.2846   50.8399 C.3     1  ZINC001053433946    0.0700
     26 C26        -0.8679    2.8622   47.8515 C.3     1  ZINC001053433946    0.0200
     27 C27         1.3615    1.7566   48.4753 C.3     1  ZINC001053433946    0.1000
     28 H28         6.2847   -0.7035   49.3050 H       1  ZINC001053433946    0.4000
     29 H29         4.8259   -0.5410   48.4876 H       1  ZINC001053433946    0.4000
     30 H30         3.0941   -0.8995   48.1082 H       1  ZINC001053433946    0.1100
     31 H31         1.6292   -1.8853   48.6413 H       1  ZINC001053433946    0.1200
     32 H32         3.9689    3.3272   50.0615 H       1  ZINC001053433946    0.1000
     33 H33         3.6629    3.4220   48.3078 H       1  ZINC001053433946    0.0800
     34 H34         1.7674    4.2773   50.5441 H       1  ZINC001053433946    0.0600
     35 H35         2.6082    5.3458   49.3946 H       1  ZINC001053433946    0.1100
     36 H36        -0.6325    1.7779   50.2436 H       1  ZINC001053433946    0.0800
     37 H37        -0.2036    3.4732   50.7425 H       1  ZINC001053433946    0.0900
     38 H38        -3.5579    2.9080   48.5518 H       1  ZINC001053433946    0.0500
     39 H39        -2.6239    1.5227   49.1658 H       1  ZINC001053433946    0.0800
     40 H40        -2.3750    4.7844   50.8910 H       1  ZINC001053433946    0.0700
     41 H41        -4.0060    4.8474   50.1771 H       1  ZINC001053433946    0.0700
     42 H42        -3.3322    4.2094   53.0871 H       1  ZINC001053433946    0.0700
     43 H43        -4.0699    5.7138   52.4830 H       1  ZINC001053433946    0.0700
     44 H44        -5.7774    4.1411   53.4043 H       1  ZINC001053433946    0.0900
     45 H45        -6.0255    4.4517   51.6691 H       1  ZINC001053433946    0.0500
     46 H46        -5.3963    2.7207   50.0819 H       1  ZINC001053433946    0.0500
     47 H47        -4.7109    1.2029   50.7108 H       1  ZINC001053433946    0.1000
     48 H48        -0.9006    3.5692   47.0226 H       1  ZINC001053433946    0.1000
     49 H49        -1.1356    1.8472   47.5576 H       1  ZINC001053433946    0.0900
     50 H50         1.6610    1.7051   47.4285 H       1  ZINC001053433946    0.0800
     51 H51         0.8593    0.8324   48.7612 H       1  ZINC001053433946    0.1000
@<TRIPOS>BOND
     1     1     2   am
     2     1    28    1
     3     1    29    1
     4     2     3    2
     5     2     4    1
     6     4     5    1
     7     4     7    1
     8     4     6    1
     9     6     7    1
    10     6    30    1
    11     6    31    1
    12     7     8    1
    13     7     9    1
    14     9    10    2
    15     9    11   am
    16    11    27    1
    17    11    12    1
    18    12    13    1
    19    12    32    1
    20    12    33    1
    21    13    14    1
    22    13    34    1
    23    13    35    1
    24    14    15    1
    25    15    26    1
    26    15    16    1
    27    15    27    1
    28    16    17    1
    29    16    36    1
    30    16    37    1
    31    17    18    1
    32    17    26    1
    33    18    19    1
    34    18    38    1
    35    18    39    1
    36    19    20    1
    37    19    25    1
    38    19    21    1
    39    21    22    1
    40    21    40    1
    41    21    41    1
    42    22    23    1
    43    22    42    1
    44    22    43    1
    45    23    24    1
    46    23    44    1
    47    23    45    1
    48    24    25    1
    49    25    46    1
    50    25    47    1
    51    26    48    1
    52    26    49    1
    53    27    50    1
    54    27    51    1
@<TRIPOS>SUBSTRUCTURE
     1 ZINC001053433946        1 TEMP              0 ****  ****    0 ROOT


##########                                Name:    ZINC001191386213
##########                DOCK_Rotatable_Bonds:                   6
##########                         Heavy_Atoms:                  29
##########                    Molecular_Weight:             392.433
##########                DOCK_Rotatable_Bonds:                   6
##########                       Formal_Charge:               -0.02
##########                     HBond_Acceptors:                   7
##########                        HBond_Donors:                   2
##########                         Heavy_Atoms:                  29
##########                          Grid_Score:          -29.627474
##########                     Grid_vdw_energy:          -30.156548
##########                      Grid_es_energy:            0.529074
##########           Internal_energy_repulsive:          168.712814

@<TRIPOS>MOLECULE
ZINC001191386213
 50 53 1 0 0
SMALL
USER_CHARGES


@<TRIPOS>ATOM
      1 C1          6.0078   -0.3121   58.9419 C.3     1  ZINC001191386213   -0.1700
      2 C2          5.3087    0.4143   57.8218 C.2     1  ZINC001191386213    0.5100
      3 O3          5.9220    0.7190   56.8208 O.2     1  ZINC001191386213   -0.5200
      4 N4          4.0020    0.7254   57.9324 N.am    1  ZINC001191386213   -0.6800
      5 C5          3.3528    1.4000   56.8923 C.ar    1  ZINC001191386213    0.1400
      6 C6          4.0549    1.7487   55.7454 C.ar    1  ZINC001191386213   -0.1400
      7 C7          3.4168    2.4145   54.7160 C.ar    1  ZINC001191386213   -0.1000
      8 C8          2.0787    2.7370   54.8219 C.ar    1  ZINC001191386213   -0.1100
      9 C9          1.3668    2.3914   55.9691 C.ar    1  ZINC001191386213    0.0100
     10 C10        -0.0722    2.7376   56.0845 C.2     1  ZINC001191386213    0.0700
     11 N11        -0.9258    2.2356   56.9519 N.2     1  ZINC001191386213   -0.2500
     12 N12        -2.0937    2.7439   56.7887 N.pl3   1  ZINC001191386213   -0.3800
     13 C13        -2.0688    3.6452   55.7617 C.2     1  ZINC001191386213   -0.0400
     14 C14        -3.2006    4.4420   55.2609 C.2     1  ZINC001191386213    0.6100
     15 O15        -3.8851    5.0810   56.0372 O.2     1  ZINC001191386213   -0.5100
     16 N16        -3.4784    4.4636   53.9423 N.am    1  ZINC001191386213   -0.6200
     17 C17        -4.5735    5.2131   53.3094 C.3     1  ZINC001191386213    0.0800
     18 C18        -4.5172    4.9163   51.7960 C.3     1  ZINC001191386213   -0.1200
     19 C19        -3.7450    3.5719   51.7340 C.3     1  ZINC001191386213   -0.0600
     20 H20        -4.4122    2.7295   51.9160 H       1  ZINC001191386213    0.1000
     21 C21        -3.0330    3.4183   50.4148 C.ar    1  ZINC001191386213   -0.1100
     22 C22        -1.9646    4.2385   50.1065 C.ar    1  ZINC001191386213   -0.0900
     23 C23        -1.3112    4.0979   48.8960 C.ar    1  ZINC001191386213   -0.1300
     24 C24        -1.7260    3.1372   47.9930 C.ar    1  ZINC001191386213   -0.0900
     25 C25        -2.7948    2.3159   48.2991 C.ar    1  ZINC001191386213   -0.1500
     26 C26        -3.4456    2.4514   49.5134 C.ar    1  ZINC001191386213    0.1100
     27 F27        -4.4904    1.6493   49.8136 F       1  ZINC001191386213   -0.1400
     28 C28        -2.7304    3.7447   52.8947 C.3     1  ZINC001191386213    0.1200
     29 C29        -0.7699    3.6660   55.2906 C.2     1  ZINC001191386213   -0.1300
     30 C30         2.0069    1.7154   57.0037 C.ar    1  ZINC001191386213   -0.1000
     31 H31         7.0516   -0.4751   58.6735 H       1  ZINC001191386213    0.1000
     32 H32         5.9557    0.2864   59.8514 H       1  ZINC001191386213    0.0900
     33 H33         5.5218   -1.2730   59.1109 H       1  ZINC001191386213    0.0900
     34 H34         3.5115    0.4816   58.7330 H       1  ZINC001191386213    0.4100
     35 H35         5.1021    1.4992   55.6581 H       1  ZINC001191386213    0.1300
     36 H36         3.9667    2.6836   53.8262 H       1  ZINC001191386213    0.1300
     37 H37         1.5834    3.2577   54.0157 H       1  ZINC001191386213    0.1300
     38 H38        -2.8771    2.5208   57.3154 H       1  ZINC001191386213    0.4400
     39 H39        -5.5303    4.8855   53.7161 H       1  ZINC001191386213    0.0700
     40 H40        -4.4406    6.2809   53.4829 H       1  ZINC001191386213    0.0800
     41 H41        -5.5214    4.8033   51.3876 H       1  ZINC001191386213    0.0900
     42 H42        -3.9713    5.6992   51.2696 H       1  ZINC001191386213    0.0900
     43 H43        -1.6400    4.9900   50.8110 H       1  ZINC001191386213    0.1300
     44 H44        -0.4761    4.7393   48.6559 H       1  ZINC001191386213    0.1300
     45 H45        -1.2151    3.0284   47.0477 H       1  ZINC001191386213    0.1300
     46 H46        -3.1192    1.5658   47.5930 H       1  ZINC001191386213    0.1400
     47 H47        -1.8722    4.3300   52.5646 H       1  ZINC001191386213    0.0800
     48 H48        -2.4074    2.7714   53.2643 H       1  ZINC001191386213    0.0900
     49 H49        -0.3759    4.2629   54.4814 H       1  ZINC001191386213    0.1700
     50 H50         1.4593    1.4456   57.8947 H       1  ZINC001191386213    0.1500
@<TRIPOS>BOND
     1     1     2    1
     2     1    31    1
     3     1    32    1
     4     1    33    1
     5     2     3    2
     6     2     4   am
     7     4     5    1
     8     4    34    1
     9     5    30   ar
    10     5     6   ar
    11     6     7   ar
    12     6    35    1
    13     7     8   ar
    14     7    36    1
    15     8     9   ar
    16     8    37    1
    17     9    10    1
    18     9    30   ar
    19    10    29    1
    20    10    11    2
    21    11    12    1
    22    12    13    1
    23    12    38    1
    24    13    14    1
    25    13    29    2
    26    14    15    2
    27    14    16   am
    28    16    28    1
    29    16    17    1
    30    17    18    1
    31    17    39    1
    32    17    40    1
    33    18    19    1
    34    18    41    1
    35    18    42    1
    36    19    20    1
    37    19    21    1
    38    19    28    1
    39    21    26   ar
    40    21    22   ar
    41    22    23   ar
    42    22    43    1
    43    23    24   ar
    44    23    44    1
    45    24    25   ar
    46    24    45    1
    47    25    26   ar
    48    25    46    1
    49    26    27    1
    50    28    47    1
    51    28    48    1
    52    29    49    1
    53    30    50    1
@<TRIPOS>SUBSTRUCTURE
     1 ZINC001191386213        1 TEMP              0 ****  ****    0 ROOT


##########                                Name:    ZINC000188380122
##########                DOCK_Rotatable_Bonds:                   6
##########                         Heavy_Atoms:                  27
##########                    Molecular_Weight:             396.433
##########                DOCK_Rotatable_Bonds:                   6
##########                       Formal_Charge:           0.0299998
##########                     HBond_Acceptors:                   8
##########                        HBond_Donors:                   1
##########                         Heavy_Atoms:                  27
##########                          Grid_Score:          -29.624475
##########                     Grid_vdw_energy:          -27.990904
##########                      Grid_es_energy:           -1.633572
##########           Internal_energy_repulsive:            8.568480

@<TRIPOS>MOLECULE
ZINC000188380122
 46 49 1 0 0
SMALL
USER_CHARGES


@<TRIPOS>ATOM
      1 O1         -3.1047    6.1901   54.2430 O.2     1  ZINC000188380122   -0.5200
      2 C2         -3.3670    5.0060   54.2294 C.2     1  ZINC000188380122    0.5200
      3 C3         -4.7010    4.5358   53.7093 C.3     1  ZINC000188380122   -0.0700
      4 C4         -4.5170    3.9027   52.3542 C.2     1  ZINC000188380122    0.0900
      5 C5         -5.3501    2.9658   51.8889 C.2     1  ZINC000188380122   -0.2400
      6 S6         -4.7984    2.4849   50.2856 S.3     1  ZINC000188380122    0.1000
      7 C7         -3.4629    3.6274   50.4079 C.2     1  ZINC000188380122    0.1100
      8 C8         -2.4329    3.8575   49.3722 C.ar    1  ZINC000188380122   -0.0200
      9 C9         -1.8494    5.1172   49.2321 C.ar    1  ZINC000188380122   -0.0400
     10 C10        -0.8884    5.3252   48.2639 C.ar    1  ZINC000188380122   -0.1200
     11 C11        -0.5036    4.2883   47.4330 C.ar    1  ZINC000188380122   -0.0600
     12 C12        -1.0784    3.0367   47.5669 C.ar    1  ZINC000188380122   -0.1800
     13 C13        -0.6527    1.9127   46.6577 C.3     1  ZINC000188380122    0.5100
     14 F14        -1.7407    1.0652   46.4230 F       1  ZINC000188380122   -0.1700
     15 F15        -0.2021    2.4406   45.4430 F       1  ZINC000188380122   -0.1700
     16 F16         0.3802    1.1890   47.2633 F       1  ZINC000188380122   -0.1700
     17 C17        -2.0361    2.8141   48.5345 C.ar    1  ZINC000188380122   -0.0500
     18 N18        -3.5318    4.2407   51.5546 N.2     1  ZINC000188380122   -0.4300
     19 N19        -2.4634    4.1104   54.6742 N.am    1  ZINC000188380122   -0.7200
     20 C20        -1.1667    4.5676   55.1797 C.3     1  ZINC000188380122    0.1300
     21 H21        -0.8240    5.4843   54.6998 H       1  ZINC000188380122    0.1200
     22 C22        -0.0985    3.4607   55.2298 C.3     1  ZINC000188380122   -0.1800
     23 C23         0.3477    4.0815   56.5588 C.3     1  ZINC000188380122    0.0900
     24 H24         1.0600    4.8924   56.4063 H       1  ZINC000188380122    0.1200
     25 O25         0.8042    3.1714   57.5276 O.3     1  ZINC000188380122   -0.3700
     26 C26        -0.1096    2.2671   58.1200 C.3     1  ZINC000188380122    0.0700
     27 C27        -1.3758    2.9913   58.5748 C.3     1  ZINC000188380122   -0.1600
     28 C28        -2.0476    3.6183   57.3492 C.3     1  ZINC000188380122   -0.1100
     29 C29        -1.0817    4.6062   56.7191 C.3     1  ZINC000188380122   -0.1500
     30 H30        -1.1473    5.6069   57.1464 H       1  ZINC000188380122    0.0900
     31 H31        -5.1219    3.8033   54.3983 H       1  ZINC000188380122    0.1100
     32 H32        -5.3781    5.3857   53.6244 H       1  ZINC000188380122    0.1100
     33 H33        -6.2121    2.5717   52.4065 H       1  ZINC000188380122    0.1800
     34 H34        -2.1496    5.9277   49.8796 H       1  ZINC000188380122    0.1500
     35 H35        -0.4360    6.2996   48.1544 H       1  ZINC000188380122    0.1400
     36 H36         0.2485    4.4564   46.6764 H       1  ZINC000188380122    0.1500
     37 H37        -2.4839    1.8368   48.6380 H       1  ZINC000188380122    0.1400
     38 H38        -2.6718    3.1631   54.6596 H       1  ZINC000188380122    0.4000
     39 H39        -0.5118    2.4572   55.3318 H       1  ZINC000188380122    0.0900
     40 H40         0.6476    3.5355   54.4387 H       1  ZINC000188380122    0.0800
     41 H41        -0.3770    1.5002   57.3931 H       1  ZINC000188380122    0.0500
     42 H42         0.3617    1.7942   58.9816 H       1  ZINC000188380122    0.1000
     43 H43        -2.0569    2.2795   59.0413 H       1  ZINC000188380122    0.0800
     44 H44        -1.1142    3.7727   59.2884 H       1  ZINC000188380122    0.0800
     45 H45        -2.2947    2.8383   56.6291 H       1  ZINC000188380122    0.0700
     46 H46        -2.9560    4.1368   57.6556 H       1  ZINC000188380122    0.0800
@<TRIPOS>BOND
     1     1     2    2
     2     2     3    1
     3     2    19   am
     4     3     4    1
     5     3    31    1
     6     3    32    1
     7     4    18    1
     8     4     5    2
     9     5     6    1
    10     5    33    1
    11     6     7    1
    12     7     8    1
    13     7    18    2
    14     8    17   ar
    15     8     9   ar
    16     9    10   ar
    17     9    34    1
    18    10    11   ar
    19    10    35    1
    20    11    12   ar
    21    11    36    1
    22    12    13    1
    23    12    17   ar
    24    13    14    1
    25    13    15    1
    26    13    16    1
    27    17    37    1
    28    19    20    1
    29    19    38    1
    30    20    21    1
    31    20    29    1
    32    20    22    1
    33    22    23    1
    34    22    39    1
    35    22    40    1
    36    23    24    1
    37    23    29    1
    38    23    25    1
    39    25    26    1
    40    26    27    1
    41    26    41    1
    42    26    42    1
    43    27    28    1
    44    27    43    1
    45    27    44    1
    46    28    29    1
    47    28    45    1
    48    28    46    1
    49    29    30    1
@<TRIPOS>SUBSTRUCTURE
     1 ZINC000188380122        1 TEMP              0 ****  ****    0 ROOT


##########                                Name:    ZINC000190927708
##########                DOCK_Rotatable_Bonds:                  10
##########                         Heavy_Atoms:                  26
##########                    Molecular_Weight:             358.437
##########                DOCK_Rotatable_Bonds:                  10
##########                       Formal_Charge:           0.0499998
##########                     HBond_Acceptors:                   6
##########                        HBond_Donors:                   1
##########                         Heavy_Atoms:                  26
##########                          Grid_Score:          -29.624065
##########                     Grid_vdw_energy:          -29.524925
##########                      Grid_es_energy:           -0.099140
##########           Internal_energy_repulsive:           24.194565

@<TRIPOS>MOLECULE
ZINC000190927708
 52 53 1 0 0
SMALL
USER_CHARGES


@<TRIPOS>ATOM
      1 C1         -8.2544    2.0758   58.0891 C.3     1  ZINC000190927708   -0.1500
      2 C2         -9.3527    1.4796   58.9720 C.3     1  ZINC000190927708   -0.1500
      3 C3         -8.7426    0.4365   59.9104 C.3     1  ZINC000190927708    0.1000
      4 N4         -9.8144   -0.2888   60.5970 N.am    1  ZINC000190927708   -0.5900
      5 C5        -10.3563   -1.3853   60.0308 C.2     1  ZINC000190927708    0.5300
      6 O6        -11.2425   -1.9866   60.5999 O.2     1  ZINC000190927708   -0.5300
      7 C7         -9.8610   -1.8641   58.6905 C.3     1  ZINC000190927708   -0.0800
      8 C8        -10.9044   -2.7467   58.0553 C.2     1  ZINC000190927708   -0.1700
      9 C9        -11.9572   -2.1892   57.4076 C.2     1  ZINC000190927708    0.0000
     10 C10       -12.9532   -3.0742   56.8008 C.ar    1  ZINC000190927708   -0.1300
     11 C11       -14.0598   -2.5581   56.1191 C.ar    1  ZINC000190927708   -0.0500
     12 C12       -14.9710   -3.4112   55.5631 C.ar    1  ZINC000190927708   -0.1500
     13 C13       -14.8082   -4.7854   55.6690 C.ar    1  ZINC000190927708   -0.0600
     14 C14       -13.7254   -5.3163   56.3367 C.ar    1  ZINC000190927708   -0.1600
     15 C15       -12.7847   -4.4677   56.9103 C.ar    1  ZINC000190927708    0.1900
     16 N16       -11.6919   -4.9712   57.5834 N.am    1  ZINC000190927708   -0.6300
     17 C17       -10.7791   -4.1504   58.1319 C.2     1  ZINC000190927708    0.5500
     18 O18        -9.8255   -4.6305   58.7198 O.2     1  ZINC000190927708   -0.5300
     19 C19       -10.2971    0.1777   61.8991 C.3     1  ZINC000190927708    0.1500
     20 H20       -10.8927   -0.6058   62.3678 H       1  ZINC000190927708    0.1400
     21 C21       -11.1591    1.4268   61.7058 C.3     1  ZINC000190927708   -0.1300
     22 C22       -12.1944    1.5111   62.8292 C.3     1  ZINC000190927708   -0.1500
     23 C23        -9.1213    0.5102   62.7811 C.2     1  ZINC000190927708    0.4500
     24 O24        -8.2398   -0.3000   62.9436 O.2     1  ZINC000190927708   -0.5000
     25 O25        -9.0532    1.7064   63.3861 O.3     1  ZINC000190927708   -0.3500
     26 C26        -8.0392    1.8693   64.4125 C.3     1  ZINC000190927708    0.0600
     27 C27        -8.4927    1.1668   65.6937 C.3     1  ZINC000190927708   -0.1500
     28 H28        -7.7916    1.2837   57.5003 H       1  ZINC000190927708    0.0600
     29 H29        -8.6890    2.8189   57.4207 H       1  ZINC000190927708    0.0600
     30 H30        -7.5001    2.5493   58.7175 H       1  ZINC000190927708    0.0600
     31 H31        -9.8154    2.2716   59.5608 H       1  ZINC000190927708    0.0800
     32 H32       -10.1070    1.0060   58.3435 H       1  ZINC000190927708    0.0700
     33 H33        -8.1416   -0.2653   59.3320 H       1  ZINC000190927708    0.0900
     34 H34        -8.1117    0.9347   60.6464 H       1  ZINC000190927708    0.0900
     35 H35        -9.6696   -1.0061   58.0461 H       1  ZINC000190927708    0.1100
     36 H36        -8.9392   -2.4302   58.8249 H       1  ZINC000190927708    0.1200
     37 H37       -12.0588   -1.1161   57.3409 H       1  ZINC000190927708    0.1400
     38 H38       -14.1937   -1.4900   56.0325 H       1  ZINC000190927708    0.1400
     39 H39       -15.8258   -3.0124   55.0369 H       1  ZINC000190927708    0.1300
     40 H40       -15.5378   -5.4458   55.2238 H       1  ZINC000190927708    0.1300
     41 H41       -13.6078   -6.3871   56.4136 H       1  ZINC000190927708    0.1300
     42 H42       -11.5778   -5.9315   57.6588 H       1  ZINC000190927708    0.4200
     43 H43       -10.5249    2.3130   61.7289 H       1  ZINC000190927708    0.0900
     44 H44       -11.6699    1.3706   60.7445 H       1  ZINC000190927708    0.0800
     45 H45       -12.8085    2.4010   62.6914 H       1  ZINC000190927708    0.0600
     46 H46       -12.8285    0.6249   62.8061 H       1  ZINC000190927708    0.0600
     47 H47       -11.6835    1.5673   63.7905 H       1  ZINC000190927708    0.0600
     48 H48        -7.1018    1.4308   64.0700 H       1  ZINC000190927708    0.0700
     49 H49        -7.8920    2.9307   64.6126 H       1  ZINC000190927708    0.0700
     50 H50        -9.4300    1.6053   66.0363 H       1  ZINC000190927708    0.0700
     51 H51        -8.6398    0.1055   65.4936 H       1  ZINC000190927708    0.0700
     52 H52        -7.7314    1.2892   66.4641 H       1  ZINC000190927708    0.0800
@<TRIPOS>BOND
     1     1     2    1
     2     1    28    1
     3     1    29    1
     4     1    30    1
     5     2     3    1
     6     2    31    1
     7     2    32    1
     8     3     4    1
     9     3    33    1
    10     3    34    1
    11     4     5   am
    12     4    19    1
    13     5     6    2
    14     5     7    1
    15     7     8    1
    16     7    35    1
    17     7    36    1
    18     8    17    1
    19     8     9    2
    20     9    10    1
    21     9    37    1
    22    10    15   ar
    23    10    11   ar
    24    11    12   ar
    25    11    38    1
    26    12    13   ar
    27    12    39    1
    28    13    14   ar
    29    13    40    1
    30    14    15   ar
    31    14    41    1
    32    15    16    1
    33    16    17   am
    34    16    42    1
    35    17    18    2
    36    19    20    1
    37    19    21    1
    38    19    23    1
    39    21    22    1
    40    21    43    1
    41    21    44    1
    42    22    45    1
    43    22    46    1
    44    22    47    1
    45    23    24    2
    46    23    25    1
    47    25    26    1
    48    26    27    1
    49    26    48    1
    50    26    49    1
    51    27    50    1
    52    27    51    1
    53    27    52    1
@<TRIPOS>SUBSTRUCTURE
     1 ZINC000190927708        1 TEMP              0 ****  ****    0 ROOT


##########                                Name:    ZINC001045438664
##########                DOCK_Rotatable_Bonds:                   6
##########                         Heavy_Atoms:                  26
##########                    Molecular_Weight:             352.439
##########                DOCK_Rotatable_Bonds:                   6
##########                       Formal_Charge:          -0.0099999
##########                     HBond_Acceptors:                   7
##########                        HBond_Donors:                   2
##########                         Heavy_Atoms:                  26
##########                          Grid_Score:          -29.614801
##########                     Grid_vdw_energy:          -29.128403
##########                      Grid_es_energy:           -0.486398
##########           Internal_energy_repulsive:           10.094646

@<TRIPOS>MOLECULE
ZINC001045438664
 50 53 1 0 0
SMALL
USER_CHARGES


@<TRIPOS>ATOM
      1 C1        -11.4163   -1.8771   53.8634 C.3     1  ZINC001045438664   -0.1100
      2 C2        -11.6409   -2.5627   55.1866 C.ar    1  ZINC001045438664    0.2100
      3 C3        -10.9335   -2.1706   56.3056 C.ar    1  ZINC001045438664   -0.3000
      4 C4        -11.1760   -2.8353   57.5098 C.ar    1  ZINC001045438664    0.4500
      5 N5        -10.4923   -2.4787   58.6607 N.pl3   1  ZINC001045438664   -0.7100
      6 C6        -10.4336   -1.0739   59.0723 C.3     1  ZINC001045438664    0.1500
      7 H7        -10.6649   -0.4355   58.2196 H       1  ZINC001045438664    0.0900
      8 C8         -9.0287   -0.7509   59.5849 C.3     1  ZINC001045438664   -0.1300
      9 C9         -8.9673    0.7162   60.0147 C.3     1  ZINC001045438664   -0.1200
     10 C10        -9.9862    0.9641   61.1288 C.3     1  ZINC001045438664   -0.1200
     11 C11       -11.3912    0.6412   60.6162 C.3     1  ZINC001045438664   -0.1300
     12 C12       -11.4525   -0.8260   60.1864 C.3     1  ZINC001045438664    0.1400
     13 H13       -11.2211   -1.4643   61.0390 H       1  ZINC001045438664    0.1000
     14 N14       -12.7977   -1.1352   59.6956 N.am    1  ZINC001045438664   -0.7200
     15 C15       -13.6931   -1.7267   60.5110 C.2     1  ZINC001045438664    0.5700
     16 O16       -13.3840   -2.0048   61.6532 O.2     1  ZINC001045438664   -0.5200
     17 C17       -15.0512   -2.0372   60.0163 C.ar    1  ZINC001045438664   -0.2500
     18 C18       -15.9776   -2.7026   60.8270 C.ar    1  ZINC001045438664    0.1900
     19 N19       -17.1807   -2.9596   60.3445 N.ar    1  ZINC001045438664   -0.5200
     20 C20       -17.5120   -2.5989   59.1201 C.ar    1  ZINC001045438664    0.3200
     21 N21       -16.6702   -1.9708   58.3228 N.ar    1  ZINC001045438664   -0.5200
     22 C22       -15.4485   -1.6688   58.7259 C.ar    1  ZINC001045438664    0.2100
     23 N23       -12.0742   -3.8154   57.5339 N.ar    1  ZINC001045438664   -0.5800
     24 C24       -12.7266   -4.1568   56.4411 C.ar    1  ZINC001045438664    0.4000
     25 C25       -13.7372   -5.2727   56.5096 C.3     1  ZINC001045438664   -0.1100
     26 C26       -15.0611   -4.9841   57.2202 C.3     1  ZINC001045438664   -0.1500
     27 C27       -15.0231   -5.1121   55.6961 C.3     1  ZINC001045438664   -0.1500
     28 N28       -12.5241   -3.5459   55.2913 N.ar    1  ZINC001045438664   -0.5600
     29 H29       -12.0951   -1.0290   53.7738 H       1  ZINC001045438664    0.0800
     30 H30       -10.3861   -1.5254   53.8066 H       1  ZINC001045438664    0.0800
     31 H31       -11.6053   -2.5809   53.0528 H       1  ZINC001045438664    0.0800
     32 H32       -10.2104   -1.3702   56.2510 H       1  ZINC001045438664    0.1400
     33 H33       -10.0522   -3.1592   59.1939 H       1  ZINC001045438664    0.4100
     34 H34        -8.7972   -1.3893   60.4375 H       1  ZINC001045438664    0.0700
     35 H35        -8.3028   -0.9276   58.7911 H       1  ZINC001045438664    0.0700
     36 H36        -7.9665    0.9463   60.3800 H       1  ZINC001045438664    0.0700
     37 H37        -9.1988    1.3545   59.1621 H       1  ZINC001045438664    0.0700
     38 H38        -9.7549    0.3257   61.9815 H       1  ZINC001045438664    0.0700
     39 H39        -9.9426    2.0093   61.4351 H       1  ZINC001045438664    0.0700
     40 H40       -12.1170    0.8178   61.4100 H       1  ZINC001045438664    0.0800
     41 H41       -11.6225    1.2795   59.7636 H       1  ZINC001045438664    0.0700
     42 H42       -13.0439   -0.9143   58.7837 H       1  ZINC001045438664    0.4000
     43 H43       -15.7136   -3.0015   61.8307 H       1  ZINC001045438664    0.1700
     44 H44       -18.5043   -2.8254   58.7588 H       1  ZINC001045438664    0.2100
     45 H45       -14.7648   -1.1542   58.0671 H       1  ZINC001045438664    0.1800
     46 H46       -13.3234   -6.2766   56.6039 H       1  ZINC001045438664    0.1300
     47 H47       -15.5184   -5.7984   57.7824 H       1  ZINC001045438664    0.1000
     48 H48       -15.2012   -3.9873   57.6382 H       1  ZINC001045438664    0.1100
     49 H49       -15.1381   -4.1995   55.1113 H       1  ZINC001045438664    0.1000
     50 H50       -15.4553   -6.0106   55.2555 H       1  ZINC001045438664    0.1000
@<TRIPOS>BOND
     1     1     2    1
     2     1    29    1
     3     1    30    1
     4     1    31    1
     5     2    28   ar
     6     2     3   ar
     7     3     4   ar
     8     3    32    1
     9     4     5    1
    10     4    23   ar
    11     5     6    1
    12     5    33    1
    13     6     7    1
    14     6    12    1
    15     6     8    1
    16     8     9    1
    17     8    34    1
    18     8    35    1
    19     9    10    1
    20     9    36    1
    21     9    37    1
    22    10    11    1
    23    10    38    1
    24    10    39    1
    25    11    12    1
    26    11    40    1
    27    11    41    1
    28    12    13    1
    29    12    14    1
    30    14    15   am
    31    14    42    1
    32    15    16    2
    33    15    17    1
    34    17    22   ar
    35    17    18   ar
    36    18    19   ar
    37    18    43    1
    38    19    20   ar
    39    20    21   ar
    40    20    44    1
    41    21    22   ar
    42    22    45    1
    43    23    24   ar
    44    24    25    1
    45    24    28   ar
    46    25    27    1
    47    25    26    1
    48    25    46    1
    49    26    27    1
    50    26    47    1
    51    26    48    1
    52    27    49    1
    53    27    50    1
@<TRIPOS>SUBSTRUCTURE
     1 ZINC001045438664        1 TEMP              0 ****  ****    0 ROOT


##########                                Name:    ZINC000859496582
##########                DOCK_Rotatable_Bonds:                  10
##########                         Heavy_Atoms:                  26
##########                    Molecular_Weight:             361.438
##########                DOCK_Rotatable_Bonds:                  10
##########                       Formal_Charge:           0.0100006
##########                     HBond_Acceptors:                   6
##########                        HBond_Donors:                   0
##########                         Heavy_Atoms:                  26
##########                          Grid_Score:          -29.574366
##########                     Grid_vdw_energy:          -28.283598
##########                      Grid_es_energy:           -1.290768
##########           Internal_energy_repulsive:           12.110826

@<TRIPOS>MOLECULE
ZINC000859496582
 53 54 1 0 0
SMALL
USER_CHARGES


@<TRIPOS>ATOM
      1 C1        -11.0687   -1.1556   53.5168 C.3     1  ZINC000859496582    0.0300
      2 O2         -9.9322   -0.3137   53.8457 O.3     1  ZINC000859496582   -0.3600
      3 C3        -10.0152    0.9821   53.5058 C.2     1  ZINC000859496582    0.4600
      4 O4        -11.0203    1.4076   52.9875 O.2     1  ZINC000859496582   -0.5100
      5 C5         -8.8547    1.9064   53.7704 C.3     1  ZINC000859496582   -0.1100
      6 C6         -8.0131    2.0449   52.5001 C.3     1  ZINC000859496582   -0.1100
      7 C7         -7.3920    0.6912   52.1497 C.3     1  ZINC000859496582   -0.1200
      8 C8         -6.3834    0.8717   51.0134 C.3     1  ZINC000859496582    0.0700
      9 O9         -5.2064    1.5578   51.5156 O.3     1  ZINC000859496582   -0.3500
     10 C10        -4.4171    2.1562   50.6097 C.2     1  ZINC000859496582    0.4700
     11 O11        -4.4971    1.8513   49.4434 O.2     1  ZINC000859496582   -0.5000
     12 C12        -3.4309    3.2084   51.0475 C.3     1  ZINC000859496582   -0.1000
     13 H13        -2.8121    2.8141   51.8536 H       1  ZINC000859496582    0.1200
     14 C14        -4.1875    4.4434   51.5418 C.3     1  ZINC000859496582   -0.1100
     15 C15        -3.1877    5.4999   52.0174 C.3     1  ZINC000859496582   -0.1300
     16 C16        -2.2952    5.9171   50.8442 C.3     1  ZINC000859496582    0.1100
     17 N17        -1.6755    4.7147   50.2706 N.am    1  ZINC000859496582   -0.6100
     18 C18        -0.3384    4.6363   50.1207 C.2     1  ZINC000859496582    0.5700
     19 O19         0.3670    5.5657   50.4613 O.2     1  ZINC000859496582   -0.5300
     20 C20         0.2704    3.4197   49.5418 C.ar    1  ZINC000859496582   -0.1400
     21 C21         0.8358    2.4539   50.3760 C.ar    1  ZINC000859496582   -0.0900
     22 C22         1.4019    1.3208   49.8294 C.ar    1  ZINC000859496582   -0.1200
     23 C23         1.4103    1.1407   48.4576 C.ar    1  ZINC000859496582   -0.0600
     24 C24         2.0308   -0.0994   47.8676 C.3     1  ZINC000859496582   -0.1200
     25 C25         0.8510    2.0939   47.6252 C.ar    1  ZINC000859496582   -0.1200
     26 C26         0.2771    3.2291   48.1592 C.ar    1  ZINC000859496582   -0.0600
     27 C27        -2.5407    3.5990   49.8637 C.3     1  ZINC000859496582    0.1100
     28 H28       -11.2285   -1.1453   52.4387 H       1  ZINC000859496582    0.0600
     29 H29       -10.8720   -2.1761   53.8454 H       1  ZINC000859496582    0.1000
     30 H30       -11.9586   -0.7772   54.0197 H       1  ZINC000859496582    0.0600
     31 H31        -9.2304    2.8859   54.0659 H       1  ZINC000859496582    0.1100
     32 H32        -8.2390    1.4966   54.5712 H       1  ZINC000859496582    0.1100
     33 H33        -8.6475    2.3773   51.6785 H       1  ZINC000859496582    0.0800
     34 H34        -7.2215    2.7756   52.6666 H       1  ZINC000859496582    0.0800
     35 H35        -6.8844    0.2867   53.0253 H       1  ZINC000859496582    0.0800
     36 H36        -8.1759    0.0028   51.8337 H       1  ZINC000859496582    0.0800
     37 H37        -6.0960   -0.1050   50.6241 H       1  ZINC000859496582    0.0700
     38 H38        -6.8357    1.4618   50.2165 H       1  ZINC000859496582    0.0700
     39 H39        -4.7877    4.8514   50.7284 H       1  ZINC000859496582    0.0800
     40 H40        -4.8400    4.1628   52.3687 H       1  ZINC000859496582    0.0800
     41 H41        -3.7278    6.3699   52.3910 H       1  ZINC000859496582    0.0900
     42 H42        -2.5707    5.0844   52.8141 H       1  ZINC000859496582    0.0700
     43 H43        -2.8985    6.4149   50.0852 H       1  ZINC000859496582    0.0700
     44 H44        -1.5185    6.5947   51.1990 H       1  ZINC000859496582    0.1000
     45 H45         0.8306    2.5936   51.4469 H       1  ZINC000859496582    0.1300
     46 H46         1.8398    0.5727   50.4737 H       1  ZINC000859496582    0.1300
     47 H47         1.2741   -0.8793   47.7829 H       1  ZINC000859496582    0.0800
     48 H48         2.4295    0.1289   46.8792 H       1  ZINC000859496582    0.0700
     49 H49         2.8377   -0.4447   48.5140 H       1  ZINC000859496582    0.0700
     50 H50         0.8605    1.9472   46.5553 H       1  ZINC000859496582    0.1300
     51 H51        -0.1594    3.9723   47.5083 H       1  ZINC000859496582    0.1300
     52 H52        -1.9259    2.7477   49.5712 H       1  ZINC000859496582    0.1100
     53 H53        -3.1643    3.9074   49.0246 H       1  ZINC000859496582    0.0800
@<TRIPOS>BOND
     1     1     2    1
     2     1    28    1
     3     1    29    1
     4     1    30    1
     5     2     3    1
     6     3     4    2
     7     3     5    1
     8     5     6    1
     9     5    31    1
    10     5    32    1
    11     6     7    1
    12     6    33    1
    13     6    34    1
    14     7     8    1
    15     7    35    1
    16     7    36    1
    17     8     9    1
    18     8    37    1
    19     8    38    1
    20     9    10    1
    21    10    11    2
    22    10    12    1
    23    12    13    1
    24    12    27    1
    25    12    14    1
    26    14    15    1
    27    14    39    1
    28    14    40    1
    29    15    16    1
    30    15    41    1
    31    15    42    1
    32    16    17    1
    33    16    43    1
    34    16    44    1
    35    17    18   am
    36    17    27    1
    37    18    19    2
    38    18    20    1
    39    20    26   ar
    40    20    21   ar
    41    21    22   ar
    42    21    45    1
    43    22    23   ar
    44    22    46    1
    45    23    24    1
    46    23    25   ar
    47    24    47    1
    48    24    48    1
    49    24    49    1
    50    25    26   ar
    51    25    50    1
    52    26    51    1
    53    27    52    1
    54    27    53    1
@<TRIPOS>SUBSTRUCTURE
     1 ZINC000859496582        1 TEMP              0 ****  ****    0 ROOT


##########                                Name:    ZINC000938043669
##########                DOCK_Rotatable_Bonds:                   7
##########                         Heavy_Atoms:                  27
##########                    Molecular_Weight:             372.439
##########                DOCK_Rotatable_Bonds:                   7
##########                       Formal_Charge:           0.0499999
##########                     HBond_Acceptors:                   6
##########                        HBond_Donors:                   1
##########                         Heavy_Atoms:                  27
##########                          Grid_Score:          -29.549879
##########                     Grid_vdw_energy:          -29.236099
##########                      Grid_es_energy:           -0.313780
##########           Internal_energy_repulsive:           39.996597

@<TRIPOS>MOLECULE
ZINC000938043669
 52 55 1 0 0
SMALL
USER_CHARGES


@<TRIPOS>ATOM
      1 O1         -7.8941   -0.9927   51.7328 O.2     1  ZINC000938043669   -0.5000
      2 C2         -8.0732    0.0993   52.2292 C.2     1  ZINC000938043669    0.5300
      3 C3         -9.2208    0.3150   53.1819 C.3     1  ZINC000938043669    0.0500
      4 O4         -9.7994   -0.9461   53.5238 O.3     1  ZINC000938043669   -0.2800
      5 C5        -10.8426   -0.9305   54.3956 C.ar    1  ZINC000938043669    0.0900
      6 C6        -11.4142   -2.1213   54.8159 C.ar    1  ZINC000938043669   -0.1800
      7 C7        -12.4743   -2.1032   55.7027 C.ar    1  ZINC000938043669   -0.0900
      8 C8        -12.9656   -0.8991   56.1711 C.ar    1  ZINC000938043669   -0.1300
      9 C9        -12.3986    0.2913   55.7540 C.ar    1  ZINC000938043669   -0.1100
     10 C10       -11.3340    0.2791   54.8713 C.ar    1  ZINC000938043669    0.0800
     11 F11       -10.7799    1.4417   54.4637 F       1  ZINC000938043669   -0.1300
     12 N12        -7.2425    1.1185   51.9332 N.am    1  ZINC000938043669   -0.6200
     13 C13        -7.3403    2.4857   52.4648 C.3     1  ZINC000938043669    0.1000
     14 C14        -6.1664    3.2930   51.8718 C.3     1  ZINC000938043669   -0.1400
     15 C15        -5.1464    2.1898   51.4847 C.3     1  ZINC000938043669    0.1300
     16 H16        -4.5544    1.8851   52.3477 H       1  ZINC000938043669    0.1100
     17 N17        -4.2818    2.6351   50.3891 N.am    1  ZINC000938043669   -0.7200
     18 C18        -3.1869    3.3753   50.6530 C.2     1  ZINC000938043669    0.5200
     19 O19        -2.9166    3.6716   51.7976 O.2     1  ZINC000938043669   -0.5200
     20 C20        -2.2984    3.8349   49.5259 C.3     1  ZINC000938043669   -0.1000
     21 H21        -2.7832    4.6517   48.9914 H       1  ZINC000938043669    0.1000
     22 C22        -2.0526    2.6707   48.5634 C.3     1  ZINC000938043669   -0.1100
     23 C23        -0.5491    2.3758   48.4879 C.3     1  ZINC000938043669   -0.0600
     24 H24        -0.3557    1.5157   47.8468 H       1  ZINC000938043669    0.0800
     25 C25        -0.0532    2.1166   49.9027 C.2     1  ZINC000938043669   -0.1800
     26 C26        -0.2668    3.1290   50.7398 C.2     1  ZINC000938043669   -0.1300
     27 C27        -0.9595    4.3205   50.0959 C.3     1  ZINC000938043669   -0.0400
     28 H28        -1.1049    5.1213   50.8210 H       1  ZINC000938043669    0.0900
     29 C29        -0.0823    4.7953   48.9293 C.3     1  ZINC000938043669   -0.1200
     30 C30         0.1612    3.6258   47.9503 C.3     1  ZINC000938043669   -0.1100
     31 C31        -6.0814    1.0454   51.0276 C.3     1  ZINC000938043669    0.1000
     32 H32        -8.8562    0.8043   54.0851 H       1  ZINC000938043669    0.1000
     33 H33        -9.9741    0.9435   52.7070 H       1  ZINC000938043669    0.1000
     34 H34       -11.0315   -3.0628   54.4505 H       1  ZINC000938043669    0.1400
     35 H35       -12.9197   -3.0312   56.0297 H       1  ZINC000938043669    0.1300
     36 H36       -13.7941   -0.8880   56.8639 H       1  ZINC000938043669    0.1400
     37 H37       -12.7846    1.2308   56.1211 H       1  ZINC000938043669    0.1500
     38 H38        -8.2875    2.9335   52.1640 H       1  ZINC000938043669    0.0800
     39 H39        -7.2655    2.4670   53.5520 H       1  ZINC000938043669    0.0800
     40 H40        -6.4867    3.8485   50.9902 H       1  ZINC000938043669    0.0900
     41 H41        -5.7435    3.9643   52.6192 H       1  ZINC000938043669    0.1000
     42 H42        -4.4972    2.3970   49.4738 H       1  ZINC000938043669    0.4000
     43 H43        -2.5786    1.7860   48.9219 H       1  ZINC000938043669    0.0700
     44 H44        -2.4210    2.9352   47.5722 H       1  ZINC000938043669    0.0800
     45 H45         0.4277    1.1964   50.2003 H       1  ZINC000938043669    0.1200
     46 H46         0.0239    3.1065   51.7797 H       1  ZINC000938043669    0.1200
     47 H47        -0.5878    5.6031   48.4002 H       1  ZINC000938043669    0.0700
     48 H48         0.8715    5.1551   49.3152 H       1  ZINC000938043669    0.0700
     49 H49         1.2311    3.4304   47.8771 H       1  ZINC000938043669    0.0700
     50 H50        -0.2278    3.8887   46.9667 H       1  ZINC000938043669    0.0700
     51 H51        -5.5792    0.0830   51.1262 H       1  ZINC000938043669    0.0900
     52 H52        -6.3999    1.2043   49.9974 H       1  ZINC000938043669    0.0700
@<TRIPOS>BOND
     1     1     2    2
     2     2     3    1
     3     2    12   am
     4     3     4    1
     5     3    32    1
     6     3    33    1
     7     4     5    1
     8     5    10   ar
     9     5     6   ar
    10     6     7   ar
    11     6    34    1
    12     7     8   ar
    13     7    35    1
    14     8     9   ar
    15     8    36    1
    16     9    10   ar
    17     9    37    1
    18    10    11    1
    19    12    31    1
    20    12    13    1
    21    13    14    1
    22    13    38    1
    23    13    39    1
    24    14    15    1
    25    14    40    1
    26    14    41    1
    27    15    16    1
    28    15    17    1
    29    15    31    1
    30    17    18   am
    31    17    42    1
    32    18    19    2
    33    18    20    1
    34    20    21    1
    35    20    27    1
    36    20    22    1
    37    22    23    1
    38    22    43    1
    39    22    44    1
    40    23    24    1
    41    23    30    1
    42    23    25    1
    43    25    26    2
    44    25    45    1
    45    26    27    1
    46    26    46    1
    47    27    28    1
    48    27    29    1
    49    29    30    1
    50    29    47    1
    51    29    48    1
    52    30    49    1
    53    30    50    1
    54    31    51    1
    55    31    52    1
@<TRIPOS>SUBSTRUCTURE
     1 ZINC000938043669        1 TEMP              0 ****  ****    0 ROOT


##########                                Name:    ZINC000979274057
##########                DOCK_Rotatable_Bonds:                   6
##########                         Heavy_Atoms:                  24
##########                    Molecular_Weight:              330.39
##########                DOCK_Rotatable_Bonds:                   6
##########                       Formal_Charge:          0.00999946
##########                     HBond_Acceptors:                   8
##########                        HBond_Donors:                   1
##########                         Heavy_Atoms:                  24
##########                          Grid_Score:          -29.515556
##########                     Grid_vdw_energy:          -26.738499
##########                      Grid_es_energy:           -2.777059
##########           Internal_energy_repulsive:           10.084789

@<TRIPOS>MOLECULE
ZINC000979274057
 46 48 1 0 0
SMALL
USER_CHARGES


@<TRIPOS>ATOM
      1 C1         -6.4109    1.0073   50.7743 C.3     1  ZINC000979274057   -0.1400
      2 C2         -6.0630    2.2631   51.5761 C.3     1  ZINC000979274057    0.1000
      3 H3         -6.2577    2.0844   52.6336 H       1  ZINC000979274057    0.0600
      4 N4         -6.8871    3.3860   51.1094 N.3     1  ZINC000979274057   -0.6700
      5 C5         -8.2254    3.3437   51.7136 C.3     1  ZINC000979274057    0.1300
      6 C6         -9.2689    3.4369   50.6302 C.ar    1  ZINC000979274057    0.3200
      7 N7        -10.4459    2.8761   50.8235 N.ar    1  ZINC000979274057   -0.5200
      8 C8        -11.3867    2.9374   49.8949 C.ar    1  ZINC000979274057    0.1500
      9 C9        -11.1204    3.6022   48.7082 C.ar    1  ZINC000979274057   -0.2300
     10 C10        -9.8712    4.1791   48.5418 C.ar    1  ZINC000979274057    0.1500
     11 N11        -8.9821    4.0815   49.5171 N.ar    1  ZINC000979274057   -0.5000
     12 C12        -4.5836    2.6000   51.3797 C.3     1  ZINC000979274057    0.0800
     13 H13        -3.9717    1.7641   51.7189 H       1  ZINC000979274057    0.0700
     14 C14        -4.2320    3.8534   52.1893 C.3     1  ZINC000979274057    0.0800
     15 N15        -2.8630    4.2634   51.8387 N.am    1  ZINC000979274057   -0.6000
     16 C16        -1.9455    4.5079   52.7952 C.2     1  ZINC000979274057    0.6100
     17 O17        -0.8190    4.8456   52.4851 O.2     1  ZINC000979274057   -0.5400
     18 C18        -2.3071    4.3663   54.2163 C.2     1  ZINC000979274057   -0.0600
     19 C19        -1.8595    3.4010   55.0700 C.2     1  ZINC000979274057    0.0400
     20 N20        -2.4357    3.6410   56.2713 N.pl3   1  ZINC000979274057   -0.4600
     21 C21        -2.2447    2.8559   57.4933 C.3     1  ZINC000979274057    0.0700
     22 C22        -3.2225    4.7407   56.1405 C.2     1  ZINC000979274057    0.1900
     23 N23        -3.1420    5.1762   54.9164 N.2     1  ZINC000979274057   -0.4600
     24 C24        -2.5250    4.3982   50.4129 C.3     1  ZINC000979274057    0.0500
     25 C25        -2.9598    3.1182   49.6899 C.3     1  ZINC000979274057    0.0500
     26 O26        -4.3298    2.8466   49.9946 O.3     1  ZINC000979274057   -0.3600
     27 H27        -7.4650    0.7673   50.9142 H       1  ZINC000979274057    0.0600
     28 H28        -6.2163    1.1859   49.7168 H       1  ZINC000979274057    0.0700
     29 H29        -5.7995    0.1740   51.1205 H       1  ZINC000979274057    0.0600
     30 H30        -6.4343    4.2684   51.2950 H       1  ZINC000979274057    0.3500
     31 H31        -8.3490    2.4072   52.2575 H       1  ZINC000979274057    0.1000
     32 H32        -8.3401    4.1813   52.4016 H       1  ZINC000979274057    0.0600
     33 H33       -12.3490    2.4755   50.0594 H       1  ZINC000979274057    0.1700
     34 H34       -11.8681    3.6686   47.9318 H       1  ZINC000979274057    0.1500
     35 H35        -9.6281    4.7046   47.6302 H       1  ZINC000979274057    0.1700
     36 H36        -4.9291    4.6552   51.9457 H       1  ZINC000979274057    0.0700
     37 H37        -4.2868    3.6296   53.2546 H       1  ZINC000979274057    0.1000
     38 H38        -1.1765    2.5987   54.8328 H       1  ZINC000979274057    0.1900
     39 H39        -1.4040    3.2601   58.0572 H       1  ZINC000979274057    0.0800
     40 H40        -3.1477    2.9052   58.1017 H       1  ZINC000979274057    0.0900
     41 H41        -2.0402    1.8181   57.2302 H       1  ZINC000979274057    0.0900
     42 H42        -3.8157    5.1844   56.9263 H       1  ZINC000979274057    0.2100
     43 H43        -3.0502    5.2549   49.9904 H       1  ZINC000979274057    0.0700
     44 H44        -1.4494    4.5352   50.3019 H       1  ZINC000979274057    0.1500
     45 H45        -2.8455    3.2511   48.6140 H       1  ZINC000979274057    0.1100
     46 H46        -2.3413    2.2845   50.0222 H       1  ZINC000979274057    0.0500
@<TRIPOS>BOND
     1     1     2    1
     2     1    27    1
     3     1    28    1
     4     1    29    1
     5     2     3    1
     6     2     4    1
     7     2    12    1
     8     4     5    1
     9     4    30    1
    10     5     6    1
    11     5    31    1
    12     5    32    1
    13     6    11   ar
    14     6     7   ar
    15     7     8   ar
    16     8     9   ar
    17     8    33    1
    18     9    10   ar
    19     9    34    1
    20    10    11   ar
    21    10    35    1
    22    12    13    1
    23    12    26    1
    24    12    14    1
    25    14    15    1
    26    14    36    1
    27    14    37    1
    28    15    16   am
    29    15    24    1
    30    16    17    2
    31    16    18    1
    32    18    23    1
    33    18    19    2
    34    19    20    1
    35    19    38    1
    36    20    21    1
    37    20    22    1
    38    21    39    1
    39    21    40    1
    40    21    41    1
    41    22    23    2
    42    22    42    1
    43    24    25    1
    44    24    43    1
    45    24    44    1
    46    25    26    1
    47    25    45    1
    48    25    46    1
@<TRIPOS>SUBSTRUCTURE
     1 ZINC000979274057        1 TEMP              0 ****  ****    0 ROOT


##########                                Name:    ZINC000462219577
##########                DOCK_Rotatable_Bonds:                   8
##########                         Heavy_Atoms:                  31
##########                    Molecular_Weight:             418.539
##########                DOCK_Rotatable_Bonds:                   8
##########                       Formal_Charge:         -0.00999914
##########                     HBond_Acceptors:                   6
##########                        HBond_Donors:                   2
##########                         Heavy_Atoms:                  31
##########                          Grid_Score:          -29.505974
##########                     Grid_vdw_energy:          -28.090546
##########                      Grid_es_energy:           -1.415428
##########           Internal_energy_repulsive:           12.386077

@<TRIPOS>MOLECULE
ZINC000462219577
 61 64 1 0 0
SMALL
USER_CHARGES


@<TRIPOS>ATOM
      1 C1        -11.7768    3.6378   48.9407 C.3     1  ZINC000462219577   -0.0700
      2 C2        -11.1871    3.1248   50.2293 C.2     1  ZINC000462219577    0.0800
      3 N3        -11.8354    2.4824   51.1672 N.2     1  ZINC000462219577   -0.2900
      4 N4        -10.9331    2.1809   52.1955 N.pl3   1  ZINC000462219577   -0.3200
      5 C5        -11.2330    1.4976   53.3822 C.ar    1  ZINC000462219577    0.1500
      6 C6        -11.4613    0.1283   53.3578 C.ar    1  ZINC000462219577   -0.1100
      7 C7        -11.7566   -0.5421   54.5287 C.ar    1  ZINC000462219577   -0.1000
      8 C8        -11.8253    0.1491   55.7244 C.ar    1  ZINC000462219577   -0.1200
      9 C9        -11.5989    1.5130   55.7518 C.ar    1  ZINC000462219577   -0.1000
     10 C10       -11.2967    2.1878   54.5852 C.ar    1  ZINC000462219577   -0.1300
     11 C11        -9.7215    2.6653   51.8404 C.2     1  ZINC000462219577    0.0900
     12 C12        -8.4536    2.5676   52.6488 C.3     1  ZINC000462219577   -0.0800
     13 C13        -7.4465    1.6815   51.9127 C.3     1  ZINC000462219577    0.1700
     14 H14        -7.5200    1.8616   50.8403 H       1  ZINC000462219577    0.1000
     15 C15        -7.7518    0.2110   52.2051 C.3     1  ZINC000462219577   -0.1600
     16 N16        -6.0913    1.9990   52.3696 N.am    1  ZINC000462219577   -0.7400
     17 C17        -5.4699    3.1064   51.9177 C.2     1  ZINC000462219577    0.7100
     18 O18        -6.0347    3.8425   51.1319 O.2     1  ZINC000462219577   -0.5800
     19 N19        -4.2225    3.3977   52.3368 N.am    1  ZINC000462219577   -0.7400
     20 C20        -3.5478    4.6022   51.8469 C.3     1  ZINC000462219577    0.1600
     21 H21        -4.2343    5.4477   51.8899 H       1  ZINC000462219577    0.1000
     22 C22        -2.3217    4.8929   52.7180 C.3     1  ZINC000462219577   -0.1700
     23 C23        -1.3291    3.7343   52.5912 C.3     1  ZINC000462219577    0.0700
     24 O24        -0.9706    3.5640   51.2185 O.3     1  ZINC000462219577   -0.3700
     25 C25        -2.0702    3.2435   50.3638 C.3     1  ZINC000462219577    0.1400
     26 H26        -2.5402    2.3216   50.7063 H       1  ZINC000462219577    0.0600
     27 C27        -1.5731    3.0600   48.9529 C.ar    1  ZINC000462219577   -0.0900
     28 C28        -2.1355    2.0917   48.1424 C.ar    1  ZINC000462219577   -0.0900
     29 C29        -1.6795    1.9234   46.8483 C.ar    1  ZINC000462219577   -0.1200
     30 C30        -0.6614    2.7236   46.3647 C.ar    1  ZINC000462219577   -0.1200
     31 C31        -0.0995    3.6925   47.1750 C.ar    1  ZINC000462219577   -0.1200
     32 C32        -0.5585    3.8636   48.4676 C.ar    1  ZINC000462219577   -0.1100
     33 C33        -3.0945    4.3831   50.4002 C.3     1  ZINC000462219577   -0.1500
     34 C34        -9.8511    3.2480   50.6260 C.2     1  ZINC000462219577   -0.2600
     35 H35       -11.7010    2.8666   48.1741 H       1  ZINC000462219577    0.0800
     36 H36       -12.8249    3.8930   49.0970 H       1  ZINC000462219577    0.0700
     37 H37       -11.2309    4.5247   48.6191 H       1  ZINC000462219577    0.0800
     38 H38       -11.4083   -0.4120   52.4242 H       1  ZINC000462219577    0.1300
     39 H39       -11.9342   -1.6072   54.5104 H       1  ZINC000462219577    0.1300
     40 H40       -12.0568   -0.3773   56.6386 H       1  ZINC000462219577    0.1300
     41 H41       -11.6540    2.0503   56.6870 H       1  ZINC000462219577    0.1300
     42 H42       -11.1199    3.2530   54.6072 H       1  ZINC000462219577    0.1300
     43 H43        -8.0310    3.5632   52.7838 H       1  ZINC000462219577    0.0900
     44 H44        -8.6764    2.1323   53.6230 H       1  ZINC000462219577    0.1100
     45 H45        -7.6784    0.0309   53.2776 H       1  ZINC000462219577    0.0600
     46 H46        -8.7601   -0.0252   51.8651 H       1  ZINC000462219577    0.0700
     47 H47        -7.0343   -0.4202   51.6807 H       1  ZINC000462219577    0.0700
     48 H48        -5.6413    1.4124   52.9975 H       1  ZINC000462219577    0.3900
     49 H49        -3.7716    2.8097   52.9629 H       1  ZINC000462219577    0.3900
     50 H50        -1.8485    5.8163   52.3842 H       1  ZINC000462219577    0.0800
     51 H51        -2.6303    4.9960   53.7584 H       1  ZINC000462219577    0.0800
     52 H52        -0.4359    3.9554   53.1755 H       1  ZINC000462219577    0.1000
     53 H53        -1.7894    2.8189   52.9630 H       1  ZINC000462219577    0.0500
     54 H54        -2.9310    1.4665   48.5202 H       1  ZINC000462219577    0.1300
     55 H55        -2.1185    1.1665   46.2152 H       1  ZINC000462219577    0.1200
     56 H56        -0.3047    2.5917   45.3538 H       1  ZINC000462219577    0.1200
     57 H57         0.6961    4.3174   46.7972 H       1  ZINC000462219577    0.1200
     58 H58        -0.1195    4.6205   49.1007 H       1  ZINC000462219577    0.1200
     59 H59        -3.9539    4.1203   49.7833 H       1  ZINC000462219577    0.0800
     60 H60        -2.6371    5.2964   50.0195 H       1  ZINC000462219577    0.0900
     61 H61        -9.0636    3.7297   50.0653 H       1  ZINC000462219577    0.1500
@<TRIPOS>BOND
     1     1     2    1
     2     1    35    1
     3     1    36    1
     4     1    37    1
     5     2    34    1
     6     2     3    2
     7     3     4    1
     8     4     5    1
     9     4    11    1
    10     5    10   ar
    11     5     6   ar
    12     6     7   ar
    13     6    38    1
    14     7     8   ar
    15     7    39    1
    16     8     9   ar
    17     8    40    1
    18     9    10   ar
    19     9    41    1
    20    10    42    1
    21    11    12    1
    22    11    34    2
    23    12    13    1
    24    12    43    1
    25    12    44    1
    26    13    14    1
    27    13    15    1
    28    13    16    1
    29    15    45    1
    30    15    46    1
    31    15    47    1
    32    16    17   am
    33    16    48    1
    34    17    18    2
    35    17    19   am
    36    19    20    1
    37    19    49    1
    38    20    21    1
    39    20    33    1
    40    20    22    1
    41    22    23    1
    42    22    50    1
    43    22    51    1
    44    23    24    1
    45    23    52    1
    46    23    53    1
    47    24    25    1
    48    25    26    1
    49    25    27    1
    50    25    33    1
    51    27    32   ar
    52    27    28   ar
    53    28    29   ar
    54    28    54    1
    55    29    30   ar
    56    29    55    1
    57    30    31   ar
    58    30    56    1
    59    31    32   ar
    60    31    57    1
    61    32    58    1
    62    33    59    1
    63    33    60    1
    64    34    61    1
@<TRIPOS>SUBSTRUCTURE
     1 ZINC000462219577        1 TEMP              0 ****  ****    0 ROOT


##########                                Name:    ZINC000011157684
##########                DOCK_Rotatable_Bonds:                   7
##########                         Heavy_Atoms:                  25
##########                    Molecular_Weight:             374.866
##########                DOCK_Rotatable_Bonds:                   7
##########                       Formal_Charge:           0.0400001
##########                     HBond_Acceptors:                   6
##########                        HBond_Donors:                   2
##########                         Heavy_Atoms:                  25
##########                          Grid_Score:          -29.486851
##########                     Grid_vdw_energy:          -28.439156
##########                      Grid_es_energy:           -1.047694
##########           Internal_energy_repulsive:            8.210273

@<TRIPOS>MOLECULE
ZINC000011157684
 41 43 1 0 0
SMALL
USER_CHARGES


@<TRIPOS>ATOM
      1 O1         -2.0665    1.9194   47.4854 O.2     1  ZINC000011157684   -0.5200
      2 C2         -1.4448    2.8534   47.9458 C.2     1  ZINC000011157684    0.5100
      3 C3         -2.0506    3.6966   49.0381 C.3     1  ZINC000011157684    0.1000
      4 N4         -2.2688    2.8709   50.2283 N.pl3   1  ZINC000011157684   -0.7300
      5 C5         -3.5606    2.7096   50.7407 C.ar    1  ZINC000011157684    0.2200
      6 C6         -4.5466    2.1149   49.9656 C.ar    1  ZINC000011157684   -0.1600
      7 C7         -5.8217    1.9561   50.4735 C.ar    1  ZINC000011157684   -0.0900
      8 C8         -6.1170    2.3901   51.7545 C.ar    1  ZINC000011157684    0.0500
      9 F9         -7.3647    2.2341   52.2486 F       1  ZINC000011157684   -0.1400
     10 C10        -5.1353    2.9835   52.5305 C.ar    1  ZINC000011157684   -0.0900
     11 C11        -3.8573    3.1396   52.0287 C.ar    1  ZINC000011157684   -0.0900
     12 Cl12       -2.6268    3.8835   53.0015 Cl      1  ZINC000011157684   -0.0500
     13 N13        -0.2098    3.1338   47.4847 N.am    1  ZINC000011157684   -0.7200
     14 C14         0.3791    2.3140   46.4229 C.3     1  ZINC000011157684    0.2600
     15 H15        -0.4098    1.7685   45.9050 H       1  ZINC000011157684    0.1200
     16 C16         1.3540    1.3356   47.0258 C.2     1  ZINC000011157684   -0.1900
     17 C17         1.3801    0.9669   48.3074 C.2     1  ZINC000011157684   -0.1200
     18 C18         2.3678    0.0527   48.6313 C.2     1  ZINC000011157684   -0.1300
     19 C19         3.1438   -0.3208   47.6127 C.2     1  ZINC000011157684   -0.2100
     20 S20         2.6267    0.4997   46.1454 S.3     1  ZINC000011157684    0.1100
     21 C21         1.1009    3.2035   45.4435 C.ar    1  ZINC000011157684   -0.0900
     22 C22         2.3433    3.7183   45.7632 C.ar    1  ZINC000011157684   -0.1100
     23 C23         3.0053    4.5341   44.8648 C.ar    1  ZINC000011157684   -0.1100
     24 C24         2.4252    4.8346   43.6466 C.ar    1  ZINC000011157684   -0.1100
     25 C25         1.1832    4.3189   43.3266 C.ar    1  ZINC000011157684   -0.1100
     26 C26         0.5230    3.4997   44.2231 C.ar    1  ZINC000011157684   -0.1000
     27 H27        -1.3737    4.5152   49.2829 H       1  ZINC000011157684    0.1000
     28 H28        -3.0033    4.1024   48.6978 H       1  ZINC000011157684    0.1000
     29 H29        -1.5176    2.4359   50.6613 H       1  ZINC000011157684    0.4200
     30 H30        -4.3173    1.7766   48.9658 H       1  ZINC000011157684    0.1400
     31 H31        -6.5888    1.4933   49.8705 H       1  ZINC000011157684    0.1400
     32 H32        -5.3678    3.3210   53.5298 H       1  ZINC000011157684    0.1500
     33 H33         0.2890    3.8784   47.8557 H       1  ZINC000011157684    0.4000
     34 H34         0.6835    1.3525   49.0371 H       1  ZINC000011157684    0.1400
     35 H35         2.5002   -0.3289   49.6329 H       1  ZINC000011157684    0.1400
     36 H36         3.9622   -1.0226   47.6782 H       1  ZINC000011157684    0.1700
     37 H37         2.7965    3.4836   46.7149 H       1  ZINC000011157684    0.1200
     38 H38         3.9757    4.9370   45.1149 H       1  ZINC000011157684    0.1300
     39 H39         2.9422    5.4726   42.9450 H       1  ZINC000011157684    0.1300
     40 H40         0.7298    4.5540   42.3750 H       1  ZINC000011157684    0.1300
     41 H41        -0.4473    3.0968   43.9731 H       1  ZINC000011157684    0.1300
@<TRIPOS>BOND
     1     1     2    2
     2     2     3    1
     3     2    13   am
     4     3     4    1
     5     3    27    1
     6     3    28    1
     7     4     5    1
     8     4    29    1
     9     5    11   ar
    10     5     6   ar
    11     6     7   ar
    12     6    30    1
    13     7     8   ar
    14     7    31    1
    15     8     9    1
    16     8    10   ar
    17    10    11   ar
    18    10    32    1
    19    11    12    1
    20    13    14    1
    21    13    33    1
    22    14    15    1
    23    14    16    1
    24    14    21    1
    25    16    20    1
    26    16    17    2
    27    17    18    1
    28    17    34    1
    29    18    19    2
    30    18    35    1
    31    19    20    1
    32    19    36    1
    33    21    26   ar
    34    21    22   ar
    35    22    23   ar
    36    22    37    1
    37    23    24   ar
    38    23    38    1
    39    24    25   ar
    40    24    39    1
    41    25    26   ar
    42    25    40    1
    43    26    41    1
@<TRIPOS>SUBSTRUCTURE
     1 ZINC000011157684        1 TEMP              0 ****  ****    0 ROOT


##########                                Name:    ZINC001023148918
##########                DOCK_Rotatable_Bonds:                   6
##########                         Heavy_Atoms:                  25
##########                    Molecular_Weight:             348.402
##########                DOCK_Rotatable_Bonds:                   6
##########                       Formal_Charge:           0.0199999
##########                     HBond_Acceptors:                   8
##########                        HBond_Donors:                   2
##########                         Heavy_Atoms:                  25
##########                          Grid_Score:          -29.480808
##########                     Grid_vdw_energy:          -27.883476
##########                      Grid_es_energy:           -1.597332
##########           Internal_energy_repulsive:            8.904635

@<TRIPOS>MOLECULE
ZINC001023148918
 49 52 1 0 0
SMALL
USER_CHARGES


@<TRIPOS>ATOM
      1 C1        -10.4456    1.0695   54.2031 C.3     1  ZINC001023148918   -0.0700
      2 C2         -9.1897    1.8490   53.9092 C.2     1  ZINC001023148918    0.0200
      3 N3         -8.5320    2.5983   54.7568 N.2     1  ZINC001023148918   -0.2700
      4 N4         -7.5038    3.1284   54.1988 N.pl3   1  ZINC001023148918   -0.2500
      5 C5         -6.5502    4.0217   54.8611 C.3     1  ZINC001023148918    0.0800
      6 C6         -7.4351    2.7320   52.8933 C.2     1  ZINC001023148918   -0.0400
      7 C7         -6.4111    3.1126   51.9074 C.2     1  ZINC001023148918    0.6000
      8 O8         -6.7334    3.3628   50.7615 O.2     1  ZINC001023148918   -0.5300
      9 N9         -5.1161    3.1841   52.2740 N.am    1  ZINC001023148918   -0.7000
     10 C10        -4.0968    3.5631   51.2924 C.3     1  ZINC001023148918    0.1500
     11 H11        -4.3140    4.5417   50.8646 H       1  ZINC001023148918    0.1200
     12 C12        -3.9670    2.4888   50.1838 C.3     1  ZINC001023148918    0.1000
     13 N13        -2.5958    2.6452   49.6654 N.am    1  ZINC001023148918   -0.6200
     14 C14        -2.1730    2.2787   48.4393 C.2     1  ZINC001023148918    0.5400
     15 O15        -2.9484    1.7706   47.6572 O.2     1  ZINC001023148918   -0.5200
     16 C16        -0.7369    2.5003   48.0401 C.3     1  ZINC001023148918   -0.1400
     17 H17        -0.0640    2.2086   48.8464 H       1  ZINC001023148918    0.1100
     18 C18        -0.5011    3.9779   47.6356 C.3     1  ZINC001023148918   -0.1400
     19 C19        -0.0618    3.8617   46.1452 C.3     1  ZINC001023148918    0.0600
     20 H20        -0.1966    4.7626   45.5466 H       1  ZINC001023148918    0.1300
     21 C21         1.3903    3.2981   46.1864 C.3     1  ZINC001023148918   -0.1500
     22 C22         1.1728    1.8191   46.5963 C.3     1  ZINC001023148918   -0.1500
     23 C23        -0.4012    1.7224   46.7323 C.3     1  ZINC001023148918    0.0900
     24 H24        -0.8166    0.7181   46.6485 H       1  ZINC001023148918    0.1400
     25 O25        -0.8287    2.6906   45.7117 O.3     1  ZINC001023148918   -0.3600
     26 C26        -1.7661    3.2679   50.7073 C.3     1  ZINC001023148918    0.0700
     27 C27        -2.6795    3.5339   51.9230 C.3     1  ZINC001023148918    0.0900
     28 H28        -2.5983    2.7262   52.6504 H       1  ZINC001023148918    0.0800
     29 O29        -2.3637    4.7897   52.5274 O.3     1  ZINC001023148918   -0.5500
     30 C30        -8.5178    1.8953   52.6856 C.2     1  ZINC001023148918   -0.1800
     31 H31       -10.1805    0.0726   54.5552 H       1  ZINC001023148918    0.0800
     32 H32       -11.0218    1.5849   54.9715 H       1  ZINC001023148918    0.0700
     33 H33       -11.0428    0.9872   53.2950 H       1  ZINC001023148918    0.0800
     34 H34        -5.7837    3.4291   55.3605 H       1  ZINC001023148918    0.0900
     35 H35        -6.0828    4.6689   54.1189 H       1  ZINC001023148918    0.1100
     36 H36        -7.0744    4.6319   55.5965 H       1  ZINC001023148918    0.0900
     37 H37        -4.8591    2.9847   53.1878 H       1  ZINC001023148918    0.4100
     38 H38        -4.1026    1.4921   50.6035 H       1  ZINC001023148918    0.0800
     39 H39        -4.6947    2.6703   49.3927 H       1  ZINC001023148918    0.0900
     40 H40        -1.4223    4.5539   47.7228 H       1  ZINC001023148918    0.0800
     41 H41         0.2915    4.4215   48.2383 H       1  ZINC001023148918    0.0900
     42 H42         1.8573    3.3617   45.2036 H       1  ZINC001023148918    0.0800
     43 H43         1.9868    3.8221   46.9333 H       1  ZINC001023148918    0.0800
     44 H44         1.5315    1.1458   45.8178 H       1  ZINC001023148918    0.0800
     45 H45         1.6609    1.6063   47.5474 H       1  ZINC001023148918    0.0800
     46 H46        -0.9584    2.5929   50.9906 H       1  ZINC001023148918    0.0800
     47 H47        -1.3547    4.2082   50.3407 H       1  ZINC001023148918    0.0900
     48 H48        -1.5261    4.7941   53.0105 H       1  ZINC001023148918    0.3900
     49 H49        -8.7893    1.3906   51.7702 H       1  ZINC001023148918    0.1600
@<TRIPOS>BOND
     1     1     2    1
     2     1    31    1
     3     1    32    1
     4     1    33    1
     5     2    30    1
     6     2     3    2
     7     3     4    1
     8     4     5    1
     9     4     6    1
    10     5    34    1
    11     5    35    1
    12     5    36    1
    13     6     7    1
    14     6    30    2
    15     7     8    2
    16     7     9   am
    17     9    10    1
    18     9    37    1
    19    10    11    1
    20    10    27    1
    21    10    12    1
    22    12    13    1
    23    12    38    1
    24    12    39    1
    25    13    14   am
    26    13    26    1
    27    14    15    2
    28    14    16    1
    29    16    17    1
    30    16    23    1
    31    16    18    1
    32    18    19    1
    33    18    40    1
    34    18    41    1
    35    19    20    1
    36    19    25    1
    37    19    21    1
    38    21    22    1
    39    21    42    1
    40    21    43    1
    41    22    23    1
    42    22    44    1
    43    22    45    1
    44    23    24    1
    45    23    25    1
    46    26    27    1
    47    26    46    1
    48    26    47    1
    49    27    28    1
    50    27    29    1
    51    29    48    1
    52    30    49    1
@<TRIPOS>SUBSTRUCTURE
     1 ZINC001023148918        1 TEMP              0 ****  ****    0 ROOT


##########                                Name:    ZINC001058079801
##########                DOCK_Rotatable_Bonds:                   7
##########                         Heavy_Atoms:                  24
##########                    Molecular_Weight:             349.457
##########                DOCK_Rotatable_Bonds:                   7
##########                       Formal_Charge:           0.0200001
##########                     HBond_Acceptors:                   8
##########                        HBond_Donors:                   0
##########                         Heavy_Atoms:                  24
##########                          Grid_Score:          -29.480574
##########                     Grid_vdw_energy:          -29.062138
##########                      Grid_es_energy:           -0.418435
##########           Internal_energy_repulsive:           27.293468

@<TRIPOS>MOLECULE
ZINC001058079801
 47 49 1 0 0
SMALL
USER_CHARGES


@<TRIPOS>ATOM
      1 C1         -7.8254    1.2341   52.4433 C.3     1  ZINC001058079801   -0.1500
      2 C2         -6.5982    0.9183   51.5857 C.3     1  ZINC001058079801   -0.1200
      3 C3         -6.3984    2.0292   50.5528 C.3     1  ZINC001058079801   -0.0300
      4 C4         -5.0054    2.5897   50.6811 C.2     1  ZINC001058079801    0.2900
      5 N5         -4.6662    3.3177   51.7050 N.2     1  ZINC001058079801   -0.4800
      6 S6         -3.0377    3.7349   51.4557 S.3     1  ZINC001058079801    0.1900
      7 C7         -2.9066    2.8894   49.9602 C.2     1  ZINC001058079801    0.2700
      8 N8         -1.7944    2.7894   49.1440 N.3     1  ZINC001058079801   -0.4300
      9 C9         -1.2579    4.1175   48.8204 C.3     1  ZINC001058079801    0.0700
     10 C10         0.0500    3.9647   48.0406 C.3     1  ZINC001058079801   -0.1300
     11 C11        -0.2166    3.1746   46.7563 C.3     1  ZINC001058079801    0.1300
     12 N12         1.0423    2.9749   46.0342 N.am    1  ZINC001058079801   -0.6100
     13 C13         1.2061    3.5175   44.6834 C.3     1  ZINC001058079801    0.0700
     14 C14         2.0500    2.2919   46.6128 C.2     1  ZINC001058079801    0.5200
     15 O15         1.9150    1.8440   47.7318 O.2     1  ZINC001058079801   -0.5300
     16 C16         3.3444    2.0849   45.8694 C.3     1  ZINC001058079801   -0.0600
     17 C17         4.2496    1.1903   46.6764 C.2     1  ZINC001058079801   -0.1900
     18 C18         5.1401    1.5485   47.6320 C.2     1  ZINC001058079801   -0.0400
     19 O19         5.7086    0.4145   48.0652 O.3     1  ZINC001058079801    0.1000
     20 N20         5.2670   -0.5525   47.4889 N.2     1  ZINC001058079801   -0.3600
     21 C21         4.3615   -0.2178   46.6156 C.2     1  ZINC001058079801    0.0000
     22 C22        -0.8199    1.8148   47.1189 C.3     1  ZINC001058079801   -0.1200
     23 C23        -2.1026    2.0300   47.9255 C.3     1  ZINC001058079801    0.0400
     24 N24        -4.0936    2.3545   49.7662 N.2     1  ZINC001058079801   -0.5300
     25 H25        -7.9679    0.4426   53.1791 H       1  ZINC001058079801    0.0600
     26 H26        -7.6756    2.1842   52.9559 H       1  ZINC001058079801    0.0600
     27 H27        -8.7070    1.3003   51.8056 H       1  ZINC001058079801    0.0600
     28 H28        -5.7167    0.8521   52.2233 H       1  ZINC001058079801    0.0700
     29 H29        -6.7481   -0.0319   51.0730 H       1  ZINC001058079801    0.0700
     30 H30        -6.5357    1.6227   49.5508 H       1  ZINC001058079801    0.1000
     31 H31        -7.1263    2.8218   50.7263 H       1  ZINC001058079801    0.0900
     32 H32        -1.9807    4.6633   48.2141 H       1  ZINC001058079801    0.0600
     33 H33        -1.0689    4.6672   49.7424 H       1  ZINC001058079801    0.1000
     34 H34         0.4398    4.9505   47.7871 H       1  ZINC001058079801    0.0800
     35 H35         0.7778    3.4310   48.6516 H       1  ZINC001058079801    0.0800
     36 H36        -0.9139    3.7274   46.1268 H       1  ZINC001058079801    0.1000
     37 H37         1.6125    4.5271   44.7441 H       1  ZINC001058079801    0.0600
     38 H38         1.8895    2.8842   44.1177 H       1  ZINC001058079801    0.0800
     39 H39         0.2380    3.5451   44.1831 H       1  ZINC001058079801    0.0800
     40 H40         3.1392    1.6197   44.9052 H       1  ZINC001058079801    0.1100
     41 H41         3.8310    3.0475   45.7121 H       1  ZINC001058079801    0.1100
     42 H42         5.3507    2.5500   47.9769 H       1  ZINC001058079801    0.2200
     43 H43         3.8100   -0.8833   45.9680 H       1  ZINC001058079801    0.1900
     44 H44        -1.0516    1.2646   46.2069 H       1  ZINC001058079801    0.0900
     45 H45        -0.1057    1.2472   47.7155 H       1  ZINC001058079801    0.0800
     46 H46        -2.5270    1.0634   48.1974 H       1  ZINC001058079801    0.1000
     47 H47        -2.8213    2.5856   47.3232 H       1  ZINC001058079801    0.0700
@<TRIPOS>BOND
     1     1     2    1
     2     1    25    1
     3     1    26    1
     4     1    27    1
     5     2     3    1
     6     2    28    1
     7     2    29    1
     8     3     4    1
     9     3    30    1
    10     3    31    1
    11     4    24    1
    12     4     5    2
    13     5     6    1
    14     6     7    1
    15     7     8    1
    16     7    24    2
    17     8    23    1
    18     8     9    1
    19     9    10    1
    20     9    32    1
    21     9    33    1
    22    10    11    1
    23    10    34    1
    24    10    35    1
    25    11    12    1
    26    11    22    1
    27    11    36    1
    28    12    13    1
    29    12    14   am
    30    13    37    1
    31    13    38    1
    32    13    39    1
    33    14    15    2
    34    14    16    1
    35    16    17    1
    36    16    40    1
    37    16    41    1
    38    17    21    1
    39    17    18    2
    40    18    19    1
    41    18    42    1
    42    19    20    1
    43    20    21    2
    44    21    43    1
    45    22    23    1
    46    22    44    1
    47    22    45    1
    48    23    46    1
    49    23    47    1
@<TRIPOS>SUBSTRUCTURE
     1 ZINC001058079801        1 TEMP              0 ****  ****    0 ROOT


##########                                Name:    ZINC000493443319
##########                DOCK_Rotatable_Bonds:                   6
##########                         Heavy_Atoms:                  25
##########                    Molecular_Weight:             348.399
##########                DOCK_Rotatable_Bonds:                   6
##########                       Formal_Charge:        -3.27826e-07
##########                     HBond_Acceptors:                   7
##########                        HBond_Donors:                   0
##########                         Heavy_Atoms:                  25
##########                          Grid_Score:          -29.480507
##########                     Grid_vdw_energy:          -27.780779
##########                      Grid_es_energy:           -1.699728
##########           Internal_energy_repulsive:           58.482948

@<TRIPOS>MOLECULE
ZINC000493443319
 49 51 1 0 0
SMALL
USER_CHARGES


@<TRIPOS>ATOM
      1 C1         -2.4661    3.8895   54.0051 C.3     1  <0>        -0.1500
      2 C2         -2.5727    5.0980   53.0729 C.3     1  <0>         0.0500
      3 O3         -3.1489    4.6916   51.8301 O.3     1  <0>        -0.3200
      4 C4         -2.3482    4.0010   50.9749 C.ar    1  <0>         0.1000
      5 C5         -2.8640    3.5132   49.7833 C.ar    1  <0>        -0.1700
      6 C6         -2.0508    2.8117   48.9146 C.ar    1  <0>        -0.1100
      7 C7         -0.7184    2.5956   49.2337 C.ar    1  <0>         0.0800
      8 O8          0.0821    1.9048   48.3786 O.3     1  <0>        -0.3000
      9 C9          0.8816    2.6716   47.4759 C.3     1  <0>         0.1000
     10 C10         0.8861    1.9994   46.1014 C.3     1  <0>        -0.1800
     11 C11         0.3010    4.0817   47.3520 C.3     1  <0>        -0.1500
     12 C12         2.2924    2.7534   47.9996 C.2     1  <0>         0.5100
     13 O13         2.8399    3.8308   48.1013 O.2     1  <0>        -0.5200
     14 N14         2.9454    1.6293   48.3549 N.am    1  <0>        -0.6000
     15 C15         4.3199    1.7057   48.8655 C.3     1  <0>         0.0700
     16 C16         4.3788    1.0399   50.2497 C.3     1  <0>         0.1300
     17 N17         3.6567   -0.2364   50.1541 N.am    1  <0>        -0.6300
     18 C18         4.0836   -1.4562   50.4850 C.2     1  <0>         0.6500
     19 O19         5.1200   -1.6578   51.0865 O.2     1  <0>        -0.5200
     20 O20         3.2612   -2.4378   50.0910 O.3     1  <0>        -0.3200
     21 C21         2.0701   -1.8584   49.4806 C.3     1  <0>         0.0500
     22 C22         2.2832   -0.3420   49.6160 C.3     1  <0>         0.0800
     23 H23         1.5523    0.1068   50.2888 H       1  <0>         0.1100
     24 C24         2.2816    0.3218   48.2386 C.3     1  <0>         0.1000
     25 C25        -0.2024    3.0847   50.4246 C.ar    1  <0>        -0.1800
     26 C26        -1.0147    3.7895   51.2915 C.ar    1  <0>        -0.1100
     27 H27        -2.0266    4.1995   54.9532 H       1  <0>         0.0800
     28 H28        -3.4600    3.4787   54.1826 H       1  <0>         0.0700
     29 H29        -1.8357    3.1293   53.5438 H       1  <0>         0.0700
     30 H30        -3.2030    5.8583   53.5343 H       1  <0>         0.0600
     31 H31        -1.5788    5.5088   52.8956 H       1  <0>         0.0600
     32 H32        -3.9015    3.6814   49.5350 H       1  <0>         0.1400
     33 H33        -2.4525    2.4312   47.9871 H       1  <0>         0.1400
     34 H34        -0.1112    2.0576   45.6653 H       1  <0>         0.0800
     35 H35         1.5975    2.5077   45.4506 H       1  <0>         0.0900
     36 H36         1.1750    0.9539   46.2092 H       1  <0>         0.0800
     37 H37         0.2150    4.5275   48.3430 H       1  <0>         0.0800
     38 H38         0.9592    4.6928   46.7345 H       1  <0>         0.0900
     39 H39        -0.6851    4.0294   46.8904 H       1  <0>         0.0900
     40 H40         4.9919    1.1864   48.1823 H       1  <0>         0.0800
     41 H41         4.6198    2.7502   48.9503 H       1  <0>         0.1300
     42 H42         5.4165    0.8584   50.5298 H       1  <0>         0.1100
     43 H43         3.9010    1.6814   50.9902 H       1  <0>         0.0800
     44 H44         2.0021   -2.1424   48.4305 H       1  <0>         0.1100
     45 H45         1.1750   -2.1683   50.0200 H       1  <0>         0.1100
     46 H46         1.2556    0.4590   47.8972 H       1  <0>         0.1100
     47 H47         2.8262   -0.3012   47.5290 H       1  <0>         0.0800
     48 H48         0.8353    2.9168   50.6729 H       1  <0>         0.1600
     49 H49        -0.6128    4.1703   52.2188 H       1  <0>         0.1300
@<TRIPOS>BOND
     1     1     2    1
     2     1    27    1
     3     1    28    1
     4     1    29    1
     5     2     3    1
     6     2    30    1
     7     2    31    1
     8     3     4    1
     9     4    26   ar
    10     4     5   ar
    11     5     6   ar
    12     5    32    1
    13     6     7   ar
    14     6    33    1
    15     7     8    1
    16     7    25   ar
    17     8     9    1
    18     9    10    1
    19     9    11    1
    20     9    12    1
    21    10    34    1
    22    10    35    1
    23    10    36    1
    24    11    37    1
    25    11    38    1
    26    11    39    1
    27    12    13    2
    28    12    14   am
    29    14    24    1
    30    14    15    1
    31    15    16    1
    32    15    40    1
    33    15    41    1
    34    16    17    1
    35    16    42    1
    36    16    43    1
    37    17    22    1
    38    17    18   am
    39    18    19    2
    40    18    20    1
    41    20    21    1
    42    21    22    1
    43    21    44    1
    44    21    45    1
    45    22    23    1
    46    22    24    1
    47    24    46    1
    48    24    47    1
    49    25    26   ar
    50    25    48    1
    51    26    49    1
@<TRIPOS>SUBSTRUCTURE
     1 <0>         1 TEMP              0 ****  ****    0 ROOT


##########                                Name:    ZINC001018437438
##########                DOCK_Rotatable_Bonds:                   8
##########                         Heavy_Atoms:                  24
##########                    Molecular_Weight:              333.39
##########                DOCK_Rotatable_Bonds:                   8
##########                       Formal_Charge:        -4.17233e-07
##########                     HBond_Acceptors:                   8
##########                        HBond_Donors:                   4
##########                         Heavy_Atoms:                  24
##########                          Grid_Score:          -29.460598
##########                     Grid_vdw_energy:          -27.234390
##########                      Grid_es_energy:           -2.226207
##########           Internal_energy_repulsive:           87.528008

@<TRIPOS>MOLECULE
ZINC001018437438
 47 49 1 0 0
SMALL
USER_CHARGES


@<TRIPOS>ATOM
      1 C1          2.9207    3.0426   46.8465 C.3     1  ZINC001018437438   -0.1400
      2 C2          1.7739    3.5315   47.7334 C.3     1  ZINC001018437438    0.1400
      3 H3          2.0238    4.5079   48.1487 H       1  ZINC001018437438    0.0700
      4 C4          0.4919    3.6399   46.9020 C.3     1  ZINC001018437438   -0.1300
      5 C5         -0.6793    3.9943   47.8213 C.3     1  ZINC001018437438   -0.1300
      6 C6         -0.8689    2.8856   48.8591 C.3     1  ZINC001018437438    0.1300
      7 H7         -1.0537    1.9393   48.3508 H       1  ZINC001018437438    0.1000
      8 N8         -2.0102    3.2101   49.7183 N.am    1  ZINC001018437438   -0.7200
      9 C9         -3.2129    2.6503   49.4812 C.2     1  ZINC001018437438    0.6000
     10 O10        -3.3506    1.8744   48.5546 O.2     1  ZINC001018437438   -0.5100
     11 C11        -4.3598    2.9777   50.3432 C.2     1  ZINC001018437438   -0.0400
     12 C12        -5.5220    2.2414   50.4947 C.2     1  ZINC001018437438   -0.1400
     13 C13        -6.2964    2.9569   51.4109 C.2     1  ZINC001018437438    0.0600
     14 C14        -7.6631    2.5677   51.9123 C.3     1  ZINC001018437438   -0.0800
     15 C15        -7.9504    1.0760   52.0945 C.3     1  ZINC001018437438   -0.1700
     16 C16        -7.7567    1.9728   53.3188 C.3     1  ZINC001018437438   -0.1600
     17 N17        -5.6239    4.0248   51.7573 N.2     1  ZINC001018437438   -0.2600
     18 N18        -4.4882    4.0660   51.1586 N.pl3   1  ZINC001018437438   -0.3800
     19 C19         0.3977    2.7686   49.7127 C.3     1  ZINC001018437438    0.1000
     20 N20         1.5531    2.5738   48.8255 N.am    1  ZINC001018437438   -0.6100
     21 C21         2.3908    1.5338   49.0073 C.2     1  ZINC001018437438    0.5200
     22 O22         3.3381    1.3813   48.2654 O.2     1  ZINC001018437438   -0.4800
     23 C23         2.1503    0.5603   50.1323 C.3     1  ZINC001018437438   -0.1700
     24 C24         3.2376   -0.4833   50.1345 C.2     1  ZINC001018437438    0.5200
     25 N25         2.9815   -1.7240   49.6744 N.am    1  ZINC001018437438   -0.8600
     26 O26         4.3427   -0.2067   50.5501 O.2     1  ZINC001018437438   -0.5000
     27 H27         2.7141    2.0255   46.5133 H       1  ZINC001018437438    0.0700
     28 H28         3.0140    3.6968   45.9798 H       1  ZINC001018437438    0.0500
     29 H29         3.8509    3.0570   47.4145 H       1  ZINC001018437438    0.0800
     30 H30         0.6116    4.4186   46.1487 H       1  ZINC001018437438    0.0900
     31 H31         0.2942    2.6865   46.4121 H       1  ZINC001018437438    0.0700
     32 H32        -0.4699    4.9356   48.3296 H       1  ZINC001018437438    0.0700
     33 H33        -1.5883    4.0963   47.2286 H       1  ZINC001018437438    0.0800
     34 H34        -1.9002    3.8280   50.4580 H       1  ZINC001018437438    0.4000
     35 H35        -5.7762    1.3115   50.0080 H       1  ZINC001018437438    0.1700
     36 H36        -8.4846    3.2017   51.5784 H       1  ZINC001018437438    0.1200
     37 H37        -8.9611    0.7282   51.8802 H       1  ZINC001018437438    0.1000
     38 H38        -7.1509    0.3761   51.8516 H       1  ZINC001018437438    0.1000
     39 H39        -6.8297    1.8630   53.8815 H       1  ZINC001018437438    0.1000
     40 H40        -8.6398    2.2151   53.9100 H       1  ZINC001018437438    0.1000
     41 H41        -3.8258    4.7667   51.2642 H       1  ZINC001018437438    0.4400
     42 H42         0.5340    3.6822   50.2914 H       1  ZINC001018437438    0.0700
     43 H43         0.3068    1.9168   50.3867 H       1  ZINC001018437438    0.0900
     44 H44         2.1574    1.0943   51.0826 H       1  ZINC001018437438    0.1200
     45 H45         1.1831    0.0771   49.9943 H       1  ZINC001018437438    0.1200
     46 H46         3.6808   -2.3961   49.6768 H       1  ZINC001018437438    0.4000
     47 H47         2.0978   -1.9447   49.3409 H       1  ZINC001018437438    0.4000
@<TRIPOS>BOND
     1     1     2    1
     2     1    27    1
     3     1    28    1
     4     1    29    1
     5     2     3    1
     6     2    20    1
     7     2     4    1
     8     4     5    1
     9     4    30    1
    10     4    31    1
    11     5     6    1
    12     5    32    1
    13     5    33    1
    14     6     7    1
    15     6     8    1
    16     6    19    1
    17     8     9   am
    18     8    34    1
    19     9    10    2
    20     9    11    1
    21    11    18    1
    22    11    12    2
    23    12    13    1
    24    12    35    1
    25    13    14    1
    26    13    17    2
    27    14    16    1
    28    14    15    1
    29    14    36    1
    30    15    16    1
    31    15    37    1
    32    15    38    1
    33    16    39    1
    34    16    40    1
    35    17    18    1
    36    18    41    1
    37    19    20    1
    38    19    42    1
    39    19    43    1
    40    20    21   am
    41    21    22    2
    42    21    23    1
    43    23    24    1
    44    23    44    1
    45    23    45    1
    46    24    25   am
    47    24    26    2
    48    25    46    1
    49    25    47    1
@<TRIPOS>SUBSTRUCTURE
     1 ZINC001018437438        1 TEMP              0 ****  ****    0 ROOT


##########                                Name:    ZINC001400108193
##########                DOCK_Rotatable_Bonds:                   9
##########                         Heavy_Atoms:                  25
##########                    Molecular_Weight:              344.41
##########                DOCK_Rotatable_Bonds:                   9
##########                       Formal_Charge:           0.0200001
##########                     HBond_Acceptors:                   6
##########                        HBond_Donors:                   2
##########                         Heavy_Atoms:                  25
##########                          Grid_Score:          -29.446959
##########                     Grid_vdw_energy:          -28.594217
##########                      Grid_es_energy:           -0.852741
##########           Internal_energy_repulsive:            8.343796

@<TRIPOS>MOLECULE
ZINC001400108193
 49 50 1 0 0
SMALL
USER_CHARGES


@<TRIPOS>ATOM
      1 C1        -13.3919   -1.2200   54.0946 C.3     1  ZINC001400108193   -0.0800
      2 C2        -12.0164   -0.8105   53.6348 C.2     1  ZINC001400108193   -0.0100
      3 C3        -11.4263    0.3655   53.8977 C.2     1  ZINC001400108193   -0.1600
      4 C4        -10.1073    0.3094   53.2506 C.2     1  ZINC001400108193   -0.2300
      5 C5         -9.0722    1.3584   53.2454 C.2     1  ZINC001400108193    0.5900
      6 O6         -9.2714    2.4121   53.8191 O.2     1  ZINC001400108193   -0.5300
      7 N7         -7.9048    1.1500   52.6049 N.am    1  ZINC001400108193   -0.7300
      8 C8         -6.8765    2.1935   52.5982 C.3     1  ZINC001400108193    0.1100
      9 C9         -6.8020    2.8273   51.2077 C.3     1  ZINC001400108193    0.1300
     10 H10        -6.8399    2.0452   50.4495 H       1  ZINC001400108193    0.1000
     11 C11        -7.9841    3.7799   51.0173 C.3     1  ZINC001400108193   -0.1600
     12 N12        -5.5479    3.5733   51.0775 N.am    1  ZINC001400108193   -0.7300
     13 C13        -4.4419    2.9569   50.6158 C.2     1  ZINC001400108193    0.5200
     14 O14        -4.4853    1.7849   50.3066 O.2     1  ZINC001400108193   -0.5100
     15 C15        -3.1514    3.7238   50.4837 C.3     1  ZINC001400108193    0.0700
     16 H16        -3.2474    4.4621   49.6875 H       1  ZINC001400108193    0.1000
     17 C17        -2.8428    4.4341   51.8032 C.3     1  ZINC001400108193   -0.1800
     18 O18        -2.0901    2.8200   50.1697 O.3     1  ZINC001400108193   -0.2800
     19 C19        -1.5381    2.9226   48.9321 C.ar    1  ZINC001400108193    0.1200
     20 C20        -0.4850    3.7984   48.7115 C.ar    1  ZINC001400108193   -0.2100
     21 C21         0.0746    3.9005   47.4527 C.ar    1  ZINC001400108193   -0.0800
     22 C22        -0.4171    3.1345   46.4119 C.ar    1  ZINC001400108193   -0.1200
     23 C23         0.1913    3.2525   45.0382 C.3     1  ZINC001400108193   -0.1100
     24 C24        -1.4631    2.2570   46.6305 C.ar    1  ZINC001400108193   -0.0800
     25 C25        -2.0263    2.1512   47.8875 C.ar    1  ZINC001400108193   -0.1400
     26 C26       -10.0444   -0.9142   52.6508 C.2     1  ZINC001400108193    0.0200
     27 O27       -11.1862   -1.5639   52.8971 O.3     1  ZINC001400108193   -0.1700
     28 H28       -14.1279   -0.9239   53.3471 H       1  ZINC001400108193    0.0900
     29 H29       -13.4237   -2.3014   54.2273 H       1  ZINC001400108193    0.0800
     30 H30       -13.6191   -0.7308   55.0418 H       1  ZINC001400108193    0.0900
     31 H31       -11.8362    1.1856   54.4685 H       1  ZINC001400108193    0.1600
     32 H32        -7.7455    0.3092   52.1483 H       1  ZINC001400108193    0.4000
     33 H33        -5.9112    1.7540   52.8494 H       1  ZINC001400108193    0.0800
     34 H34        -7.1298    2.9579   53.3328 H       1  ZINC001400108193    0.0900
     35 H35        -7.9311    4.2313   50.0267 H       1  ZINC001400108193    0.0700
     36 H36        -8.9172    3.2248   51.1142 H       1  ZINC001400108193    0.0700
     37 H37        -7.9463    4.5620   51.7756 H       1  ZINC001400108193    0.0600
     38 H38        -5.5136    4.5110   51.3237 H       1  ZINC001400108193    0.4000
     39 H39        -3.6523    5.1235   52.0428 H       1  ZINC001400108193    0.0800
     40 H40        -2.7468    3.6958   52.5994 H       1  ZINC001400108193    0.0800
     41 H41        -1.9094    4.9888   51.7077 H       1  ZINC001400108193    0.0800
     42 H42        -0.1036    4.4002   49.5231 H       1  ZINC001400108193    0.1300
     43 H43         0.8942    4.5824   47.2802 H       1  ZINC001400108193    0.1300
     44 H44         1.0067    2.5359   44.9393 H       1  ZINC001400108193    0.0700
     45 H45        -0.5687    3.0443   44.2851 H       1  ZINC001400108193    0.0700
     46 H46         0.5760    4.2625   44.8967 H       1  ZINC001400108193    0.0700
     47 H47        -1.8428    1.6568   45.8169 H       1  ZINC001400108193    0.1300
     48 H48        -2.8457    1.4683   48.0568 H       1  ZINC001400108193    0.1300
     49 H49        -9.2122   -1.2945   52.0770 H       1  ZINC001400108193    0.2100
@<TRIPOS>BOND
     1     1     2    1
     2     1    28    1
     3     1    29    1
     4     1    30    1
     5     2    27    1
     6     2     3    2
     7     3     4    1
     8     3    31    1
     9     4     5    1
    10     4    26    2
    11     5     6    2
    12     5     7   am
    13     7     8    1
    14     7    32    1
    15     8     9    1
    16     8    33    1
    17     8    34    1
    18     9    10    1
    19     9    11    1
    20     9    12    1
    21    11    35    1
    22    11    36    1
    23    11    37    1
    24    12    13   am
    25    12    38    1
    26    13    14    2
    27    13    15    1
    28    15    16    1
    29    15    17    1
    30    15    18    1
    31    17    39    1
    32    17    40    1
    33    17    41    1
    34    18    19    1
    35    19    25   ar
    36    19    20   ar
    37    20    21   ar
    38    20    42    1
    39    21    22   ar
    40    21    43    1
    41    22    23    1
    42    22    24   ar
    43    23    44    1
    44    23    45    1
    45    23    46    1
    46    24    25   ar
    47    24    47    1
    48    25    48    1
    49    26    27    1
    50    26    49    1
@<TRIPOS>SUBSTRUCTURE
     1 ZINC001400108193        1 TEMP              0 ****  ****    0 ROOT


##########                                Name:    ZINC000163855860
##########                DOCK_Rotatable_Bonds:                   6
##########                         Heavy_Atoms:                  28
##########                    Molecular_Weight:             398.483
##########                DOCK_Rotatable_Bonds:                   6
##########                       Formal_Charge:          -0.0100004
##########                     HBond_Acceptors:                   7
##########                        HBond_Donors:                   1
##########                         Heavy_Atoms:                  28
##########                          Grid_Score:          -29.422926
##########                     Grid_vdw_energy:          -29.051350
##########                      Grid_es_energy:           -0.371577
##########           Internal_energy_repulsive:           16.323488

@<TRIPOS>MOLECULE
ZINC000163855860
 50 53 1 0 0
SMALL
USER_CHARGES


@<TRIPOS>ATOM
      1 C1          1.4910    3.5446   51.7092 C.3     1  ZINC000163855860   -0.1300
      2 C2          0.2337    3.3392   50.9041 C.ar    1  ZINC000163855860   -0.0600
      3 C3         -1.0005    3.3205   51.5345 C.ar    1  ZINC000163855860    0.1400
      4 N4         -1.0806    3.4932   52.9210 N.am    1  ZINC000163855860   -0.6700
      5 C5         -1.5513    4.6490   53.4302 C.2     1  ZINC000163855860    0.5100
      6 O6         -1.9054    5.5394   52.6867 O.2     1  ZINC000163855860   -0.5100
      7 C7         -1.6375    4.8349   54.9231 C.3     1  ZINC000163855860   -0.1300
      8 C8         -1.6125    3.4677   55.6096 C.3     1  ZINC000163855860   -0.1100
      9 H9         -2.0785    2.7082   54.9817 H       1  ZINC000163855860    0.1100
     10 C10        -0.1671    3.0644   55.9806 C.3     1  ZINC000163855860    0.0600
     11 O11        -0.3036    2.3382   57.2378 O.3     1  ZINC000163855860   -0.3500
     12 C12        -1.3501    2.8132   57.9282 C.2     1  ZINC000163855860    0.4800
     13 O13        -1.5130    2.6852   59.1185 O.2     1  ZINC000163855860   -0.4500
     14 C14        -2.2968    3.5339   56.9930 C.3     1  ZINC000163855860   -0.1800
     15 C15        -2.1590    3.1361   50.7890 C.ar    1  ZINC000163855860   -0.1100
     16 C16        -2.0852    2.9661   49.4194 C.ar    1  ZINC000163855860   -0.1100
     17 C17        -0.8607    2.9783   48.7827 C.ar    1  ZINC000163855860   -0.1000
     18 C18         0.3086    3.1623   49.5224 C.ar    1  ZINC000163855860   -0.1100
     19 C19         1.6217    3.1763   48.8428 C.2     1  ZINC000163855860    0.5700
     20 O20         2.1458    4.2346   48.5550 O.2     1  ZINC000163855860   -0.5300
     21 N21         2.2375    2.0157   48.5425 N.am    1  ZINC000163855860   -0.6100
     22 C22         3.5437    2.0072   47.8669 C.3     1  ZINC000163855860    0.1200
     23 C23         4.5804    1.4043   48.8277 C.3     1  ZINC000163855860   -0.0600
     24 C24         4.0034    0.1534   49.4555 C.2     1  ZINC000163855860   -0.1700
     25 C25         2.6948   -0.1620   49.4914 C.2     1  ZINC000163855860   -0.1300
     26 C26         2.4244   -1.3643   50.1373 C.2     1  ZINC000163855860   -0.1200
     27 C27         3.4830   -2.0139   50.6107 C.2     1  ZINC000163855860   -0.2100
     28 S28         4.9422   -1.1027   50.2528 S.3     1  ZINC000163855860    0.1100
     29 C29         1.6186    0.7251   48.8763 C.3     1  ZINC000163855860    0.1700
     30 H30         1.9253    2.5763   51.9580 H       1  ZINC000163855860    0.0700
     31 H31         2.2058    4.1242   51.1252 H       1  ZINC000163855860    0.0900
     32 H32         1.2510    4.0817   52.6268 H       1  ZINC000163855860    0.0700
     33 H33        -0.7974    2.7810   53.5157 H       1  ZINC000163855860    0.4100
     34 H34        -2.5656    5.3495   55.1722 H       1  ZINC000163855860    0.1100
     35 H35        -0.7899    5.4287   55.2650 H       1  ZINC000163855860    0.1100
     36 H36         0.4520    3.9508   56.1182 H       1  ZINC000163855860    0.0800
     37 H37         0.2570    2.4183   55.2120 H       1  ZINC000163855860    0.1200
     38 H38        -3.2610    3.0263   56.9640 H       1  ZINC000163855860    0.1200
     39 H39        -2.4223    4.5707   57.3051 H       1  ZINC000163855860    0.1200
     40 H40        -3.1200    3.1260   51.2816 H       1  ZINC000163855860    0.1500
     41 H41        -2.9889    2.8237   48.8454 H       1  ZINC000163855860    0.1300
     42 H42        -0.8072    2.8451   47.7123 H       1  ZINC000163855860    0.1300
     43 H43         3.4841    1.4018   46.9625 H       1  ZINC000163855860    0.0800
     44 H44         3.8294    3.0273   47.6096 H       1  ZINC000163855860    0.1000
     45 H45         4.8203    2.1265   49.6081 H       1  ZINC000163855860    0.0900
     46 H46         5.4852    1.1507   48.2752 H       1  ZINC000163855860    0.0900
     47 H47         1.4196   -1.7448   50.2471 H       1  ZINC000163855860    0.1400
     48 H48         3.4513   -2.9579   51.1346 H       1  ZINC000163855860    0.1700
     49 H49         0.8114    0.8772   49.5929 H       1  ZINC000163855860    0.1000
     50 H50         1.2266    0.2588   47.9724 H       1  ZINC000163855860    0.0900
@<TRIPOS>BOND
     1     1     2    1
     2     1    30    1
     3     1    31    1
     4     1    32    1
     5     2    18   ar
     6     2     3   ar
     7     3     4    1
     8     3    15   ar
     9     4     5   am
    10     4    33    1
    11     5     6    2
    12     5     7    1
    13     7     8    1
    14     7    34    1
    15     7    35    1
    16     8     9    1
    17     8    14    1
    18     8    10    1
    19    10    11    1
    20    10    36    1
    21    10    37    1
    22    11    12    1
    23    12    13    2
    24    12    14    1
    25    14    38    1
    26    14    39    1
    27    15    16   ar
    28    15    40    1
    29    16    17   ar
    30    16    41    1
    31    17    18   ar
    32    17    42    1
    33    18    19    1
    34    19    20    2
    35    19    21   am
    36    21    29    1
    37    21    22    1
    38    22    23    1
    39    22    43    1
    40    22    44    1
    41    23    24    1
    42    23    45    1
    43    23    46    1
    44    24    28    1
    45    24    25    2
    46    25    26    1
    47    25    29    1
    48    26    27    2
    49    26    47    1
    50    27    28    1
    51    27    48    1
    52    29    49    1
    53    29    50    1
@<TRIPOS>SUBSTRUCTURE
     1 ZINC000163855860        1 TEMP              0 ****  ****    0 ROOT


##########                                Name:    ZINC000057429281
##########                DOCK_Rotatable_Bonds:                  10
##########                         Heavy_Atoms:                  23
##########                    Molecular_Weight:             331.295
##########                DOCK_Rotatable_Bonds:                  10
##########                       Formal_Charge:          -0.0100002
##########                     HBond_Acceptors:                   9
##########                        HBond_Donors:                   5
##########                         Heavy_Atoms:                  23
##########                          Grid_Score:          -29.417061
##########                     Grid_vdw_energy:          -28.136385
##########                      Grid_es_energy:           -1.280675
##########           Internal_energy_repulsive:            8.995592

@<TRIPOS>MOLECULE
ZINC000057429281
 39 39 1 0 0
SMALL
USER_CHARGES


@<TRIPOS>ATOM
      1 C1          0.4548    3.2586   45.7255 C.3     1  ZINC000057429281   -0.1500
      2 C2          0.8101    2.6134   47.0665 C.3     1  ZINC000057429281   -0.0400
      3 H3          1.6760    3.1184   47.4945 H       1  ZINC000057429281    0.0900
      4 C4          1.1373    1.1346   46.8503 C.3     1  ZINC000057429281   -0.1300
      5 C5          2.3578    0.7674   47.6545 C.2     1  ZINC000057429281    0.5200
      6 O6          3.4466    1.1938   47.3329 O.2     1  ZINC000057429281   -0.5300
      7 N7          2.2393   -0.0348   48.7310 N.am    1  ZINC000057429281   -0.7000
      8 C8          3.4260   -0.3932   49.5117 C.3     1  ZINC000057429281    0.1100
      9 C9          3.6625    0.6498   50.5735 C.2     1  ZINC000057429281    0.5200
     10 N10         2.6414    1.4169   51.0038 N.am    1  ZINC000057429281   -0.8500
     11 O11         4.7717    0.7988   51.0407 O.2     1  ZINC000057429281   -0.5100
     12 C12         3.2118   -1.7347   50.1641 C.2     1  ZINC000057429281    0.5300
     13 N13         1.9666   -2.2376   50.2778 N.am    1  ZINC000057429281   -0.8400
     14 O14         4.1600   -2.3617   50.5868 O.2     1  ZINC000057429281   -0.5100
     15 C15        -0.3596    2.7366   48.0086 C.ar    1  ZINC000057429281   -0.0500
     16 C16        -1.5971    2.2412   47.6425 C.ar    1  ZINC000057429281   -0.1200
     17 C17        -2.6702    2.3541   48.5067 C.ar    1  ZINC000057429281   -0.0700
     18 C18        -2.5055    2.9621   49.7372 C.ar    1  ZINC000057429281   -0.1900
     19 C19        -3.6753    3.0855   50.6793 C.3     1  ZINC000057429281    0.5100
     20 F20        -4.2761    4.3383   50.5153 F       1  ZINC000057429281   -0.1800
     21 F21        -4.6077    2.0809   50.3991 F       1  ZINC000057429281   -0.1800
     22 F22        -3.2280    2.9519   51.9981 F       1  ZINC000057429281   -0.1800
     23 C23        -1.2677    3.4562   50.1039 C.ar    1  ZINC000057429281   -0.0700
     24 C24        -0.1938    3.3398   49.2413 C.ar    1  ZINC000057429281   -0.1100
     25 H25         0.2217    4.3121   45.8794 H       1  ZINC000057429281    0.0600
     26 H26         1.3009    3.1696   45.0440 H       1  ZINC000057429281    0.0800
     27 H27        -0.4112    2.7537   45.2974 H       1  ZINC000057429281    0.0500
     28 H28         0.2931    0.5249   47.1722 H       1  ZINC000057429281    0.1000
     29 H29         1.3319    0.9564   45.7928 H       1  ZINC000057429281    0.1000
     30 H30         1.3682   -0.3749   48.9889 H       1  ZINC000057429281    0.4200
     31 H31         4.2927   -0.4438   48.8527 H       1  ZINC000057429281    0.1300
     32 H32         2.7935    2.0883   51.6872 H       1  ZINC000057429281    0.4000
     33 H33         1.7543    1.2978   50.6299 H       1  ZINC000057429281    0.4100
     34 H34         1.8287   -3.1011   50.6977 H       1  ZINC000057429281    0.4000
     35 H35         1.2083   -1.7361   49.9396 H       1  ZINC000057429281    0.4100
     36 H36        -1.7258    1.7662   46.6811 H       1  ZINC000057429281    0.1400
     37 H37        -3.6371    1.9677   48.2204 H       1  ZINC000057429281    0.1400
     38 H38        -1.1389    3.9308   51.0655 H       1  ZINC000057429281    0.1400
     39 H39         0.7733    3.7259   49.5278 H       1  ZINC000057429281    0.1400
@<TRIPOS>BOND
     1     1     2    1
     2     1    25    1
     3     1    26    1
     4     1    27    1
     5     2     3    1
     6     2     4    1
     7     2    15    1
     8     4     5    1
     9     4    28    1
    10     4    29    1
    11     5     6    2
    12     5     7   am
    13     7     8    1
    14     7    30    1
    15     8     9    1
    16     8    12    1
    17     8    31    1
    18     9    10   am
    19     9    11    2
    20    10    32    1
    21    10    33    1
    22    12    13   am
    23    12    14    2
    24    13    34    1
    25    13    35    1
    26    15    24   ar
    27    15    16   ar
    28    16    17   ar
    29    16    36    1
    30    17    18   ar
    31    17    37    1
    32    18    19    1
    33    18    23   ar
    34    19    20    1
    35    19    21    1
    36    19    22    1
    37    23    24   ar
    38    23    38    1
    39    24    39    1
@<TRIPOS>SUBSTRUCTURE
     1 ZINC000057429281        1 TEMP              0 ****  ****    0 ROOT


##########                                Name:    ZINC000854500114
##########                DOCK_Rotatable_Bonds:                   7
##########                         Heavy_Atoms:                  24
##########                    Molecular_Weight:             399.288
##########                DOCK_Rotatable_Bonds:                   7
##########                       Formal_Charge:          -0.0399992
##########                     HBond_Acceptors:                   7
##########                        HBond_Donors:                   2
##########                         Heavy_Atoms:                  24
##########                          Grid_Score:          -29.416401
##########                     Grid_vdw_energy:          -28.475082
##########                      Grid_es_energy:           -0.941318
##########           Internal_energy_repulsive:           74.504524

@<TRIPOS>MOLECULE
ZINC000854500114
 47 49 1 0 0
SMALL
USER_CHARGES


@<TRIPOS>ATOM
      1 O1         -2.3615    1.7219   47.8097 O.2     1  ZINC000854500114   -0.5800
      2 C2         -1.8275    2.7701   48.1143 C.2     1  ZINC000854500114    0.6600
      3 N3         -0.7410    3.1941   47.4388 N.am    1  ZINC000854500114   -0.7100
      4 C4         -0.2003    2.3884   46.3411 C.3     1  ZINC000854500114    0.1600
      5 C5          0.8173    3.2163   45.5294 C.3     1  ZINC000854500114   -0.1400
      6 C6          2.1902    2.8270   46.1317 C.3     1  ZINC000854500114   -0.1300
      7 C7          2.0228    1.3132   46.4136 C.3     1  ZINC000854500114   -0.1300
      8 C8          0.5662    1.1785   46.9033 C.3     1  ZINC000854500114   -0.1300
      9 O9         -2.3244    3.5105   49.1230 O.3     1  ZINC000854500114   -0.3600
     10 C10        -3.5800    3.0723   49.7059 C.3     1  ZINC000854500114    0.1000
     11 C11        -4.0311    4.0819   50.7633 C.3     1  ZINC000854500114    0.1500
     12 H12        -4.2738    5.0300   50.2834 H       1  ZINC000854500114    0.0900
     13 C13        -2.9072    4.2950   51.7824 C.3     1  ZINC000854500114   -0.1300
     14 C14        -3.4121    5.1962   52.9116 C.3     1  ZINC000854500114   -0.1200
     15 C15        -4.5858    4.5180   53.6218 C.3     1  ZINC000854500114   -0.1400
     16 C16        -5.7287    4.3074   52.6236 C.3     1  ZINC000854500114    0.0900
     17 N17        -5.2160    3.5664   51.4626 N.am    1  ZINC000854500114   -0.6100
     18 C18        -5.8181    2.4331   51.0508 C.2     1  ZINC000854500114    0.5900
     19 O19        -5.3840    1.8289   50.0885 O.2     1  ZINC000854500114   -0.4900
     20 C20        -7.0006    1.9267   51.7654 C.2     1  ZINC000854500114   -0.0300
     21 C21        -8.2951    2.4077   51.6744 C.2     1  ZINC000854500114   -0.1200
     22 C22        -9.0495    1.6049   52.5343 C.2     1  ZINC000854500114    0.0200
     23 Br23      -10.9066    1.7568   52.8568 Br      1  ZINC000854500114    0.0400
     24 N24        -8.2420    0.7288   53.0766 N.2     1  ZINC000854500114   -0.2400
     25 N25        -7.0416    0.8840   52.6469 N.pl3   1  ZINC000854500114   -0.3700
     26 H26        -0.3171    4.0327   47.6793 H       1  ZINC000854500114    0.4000
     27 H27        -1.0089    2.0500   45.6933 H       1  ZINC000854500114    0.0900
     28 H28         0.7733    2.9467   44.4742 H       1  ZINC000854500114    0.0800
     29 H29         0.6322    4.2826   45.6597 H       1  ZINC000854500114    0.0700
     30 H30         2.9906    2.9998   45.4121 H       1  ZINC000854500114    0.0700
     31 H31         2.3756    3.3740   47.0560 H       1  ZINC000854500114    0.0700
     32 H32         2.1735    0.7363   45.5012 H       1  ZINC000854500114    0.0700
     33 H33         2.7174    0.9907   47.1893 H       1  ZINC000854500114    0.0700
     34 H34         0.5359    1.1906   47.9928 H       1  ZINC000854500114    0.0700
     35 H35         0.1301    0.2528   46.5276 H       1  ZINC000854500114    0.0800
     36 H36        -4.3374    3.0006   48.9254 H       1  ZINC000854500114    0.1000
     37 H37        -3.4436    2.0959   50.1707 H       1  ZINC000854500114    0.0700
     38 H38        -2.6019    3.3330   52.1937 H       1  ZINC000854500114    0.0800
     39 H39        -2.0565    4.7682   51.2920 H       1  ZINC000854500114    0.0900
     40 H40        -2.6069    5.3696   53.6254 H       1  ZINC000854500114    0.0800
     41 H41        -3.7405    6.1491   52.4964 H       1  ZINC000854500114    0.0700
     42 H42        -4.2647    3.5538   54.0158 H       1  ZINC000854500114    0.0700
     43 H43        -4.9298    5.1498   54.4407 H       1  ZINC000854500114    0.0800
     44 H44        -6.5275    3.7370   53.0977 H       1  ZINC000854500114    0.0800
     45 H45        -6.1116    5.2743   52.2972 H       1  ZINC000854500114    0.0800
     46 H46        -8.6474    3.2290   51.0680 H       1  ZINC000854500114    0.1700
     47 H47        -6.2790    0.3466   52.9125 H       1  ZINC000854500114    0.4500
@<TRIPOS>BOND
     1     1     2    2
     2     2     3   am
     3     2     9    1
     4     3     4    1
     5     3    26    1
     6     4     8    1
     7     4     5    1
     8     4    27    1
     9     5     6    1
    10     5    28    1
    11     5    29    1
    12     6     7    1
    13     6    30    1
    14     6    31    1
    15     7     8    1
    16     7    32    1
    17     7    33    1
    18     8    34    1
    19     8    35    1
    20     9    10    1
    21    10    11    1
    22    10    36    1
    23    10    37    1
    24    11    12    1
    25    11    17    1
    26    11    13    1
    27    13    14    1
    28    13    38    1
    29    13    39    1
    30    14    15    1
    31    14    40    1
    32    14    41    1
    33    15    16    1
    34    15    42    1
    35    15    43    1
    36    16    17    1
    37    16    44    1
    38    16    45    1
    39    17    18   am
    40    18    19    2
    41    18    20    1
    42    20    25    1
    43    20    21    2
    44    21    22    1
    45    21    46    1
    46    22    23    1
    47    22    24    2
    48    24    25    1
    49    25    47    1
@<TRIPOS>SUBSTRUCTURE
     1 ZINC000854500114        1 TEMP              0 ****  ****    0 ROOT


##########                                Name:    ZINC000626935317
##########                DOCK_Rotatable_Bonds:                   6
##########                         Heavy_Atoms:                  25
##########                    Molecular_Weight:             366.441
##########                DOCK_Rotatable_Bonds:                   6
##########                       Formal_Charge:          -0.0200006
##########                     HBond_Acceptors:                   9
##########                        HBond_Donors:                   2
##########                         Heavy_Atoms:                  25
##########                          Grid_Score:          -29.412460
##########                     Grid_vdw_energy:          -25.161886
##########                      Grid_es_energy:           -4.250575
##########           Internal_energy_repulsive:            9.325809

@<TRIPOS>MOLECULE
ZINC000626935317
 47 49 1 0 0
SMALL
USER_CHARGES


@<TRIPOS>ATOM
      1 C1         -1.4830    4.2212   49.2323 C.3     1  ZINC000626935317    0.0900
      2 N2         -2.6888    3.5678   49.7474 N.am    1  ZINC000626935317   -0.6200
      3 C3         -3.1783    2.4050   49.2837 C.2     1  ZINC000626935317    0.5200
      4 O4         -2.6913    1.7567   48.3818 O.2     1  ZINC000626935317   -0.5200
      5 C5         -4.4249    2.0224   50.0507 C.3     1  ZINC000626935317   -0.1500
      6 C6         -4.3785    2.9095   51.3164 C.3     1  ZINC000626935317   -0.1200
      7 H7         -3.8955    2.3866   52.1418 H       1  ZINC000626935317    0.1200
      8 C8         -5.7609    3.3661   51.7059 C.2     1  ZINC000626935317    0.5300
      9 O9         -6.3575    4.1576   51.0070 O.2     1  ZINC000626935317   -0.5200
     10 N10        -6.3341    2.8947   52.8309 N.am    1  ZINC000626935317   -0.7100
     11 C11        -7.6772    3.3398   53.2106 C.3     1  ZINC000626935317    0.1200
     12 C12        -8.2139    2.6631   54.4829 C.3     1  ZINC000626935317   -0.1600
     13 C13        -7.5540    3.8049   55.2740 C.3     1  ZINC000626935317    0.1200
     14 N14        -6.1656    3.5306   55.6526 N.am    1  ZINC000626935317   -1.1100
     15 S15        -5.5672    4.1117   57.0831 S.o2    1  ZINC000626935317    2.6100
     16 C16        -3.8478    3.5348   57.1221 C.3     1  ZINC000626935317   -0.6700
     17 O17        -5.6160    5.5242   56.9354 O.2     1  ZINC000626935317   -0.9500
     18 O18        -6.3372    3.4522   58.0788 O.2     1  ZINC000626935317   -0.9500
     19 C19        -7.6885    4.6585   54.0018 C.3     1  ZINC000626935317   -0.1600
     20 C20        -3.5141    4.0957   50.8402 C.3     1  ZINC000626935317    0.2000
     21 H21        -4.1491    4.9007   50.4702 H       1  ZINC000626935317    0.1100
     22 C22        -2.6457    4.5934   51.9667 C.ar    1  ZINC000626935317   -0.1600
     23 C23        -1.6308    3.7974   52.4750 C.ar    1  ZINC000626935317   -0.0500
     24 C24        -0.8566    4.2969   53.5114 C.ar    1  ZINC000626935317   -0.1700
     25 C25        -1.1203    5.5624   53.9995 C.ar    1  ZINC000626935317    0.1000
     26 N26        -2.0944    6.2920   53.4915 N.ar    1  ZINC000626935317   -0.4800
     27 C27        -2.8471    5.8516   52.5025 C.ar    1  ZINC000626935317    0.1200
     28 H28        -0.6131    3.8664   49.7851 H       1  ZINC000626935317    0.0600
     29 H29        -1.3638    3.9827   48.1754 H       1  ZINC000626935317    0.0800
     30 H30        -1.5748    5.3006   49.3530 H       1  ZINC000626935317    0.0700
     31 H31        -5.3164    2.2417   49.4635 H       1  ZINC000626935317    0.1100
     32 H32        -4.3963    0.9674   50.3232 H       1  ZINC000626935317    0.1200
     33 H33        -5.8574    2.2607   53.3893 H       1  ZINC000626935317    0.4000
     34 H34        -8.3795    3.3248   52.3771 H       1  ZINC000626935317    0.1100
     35 H35        -9.3018    2.6580   54.5490 H       1  ZINC000626935317    0.1100
     36 H36        -7.7724    1.6855   54.6768 H       1  ZINC000626935317    0.0800
     37 H37        -8.1571    4.1637   56.1079 H       1  ZINC000626935317    0.1100
     38 H38        -5.5968    3.0086   55.0652 H       1  ZINC000626935317    0.4100
     39 H39        -3.3102    3.9363   56.2631 H       1  ZINC000626935317    0.1300
     40 H40        -3.3709    3.8758   58.0410 H       1  ZINC000626935317    0.1300
     41 H41        -3.8292    2.4455   57.0858 H       1  ZINC000626935317    0.1300
     42 H42        -6.8229    5.2918   53.8074 H       1  ZINC000626935317    0.0900
     43 H43        -8.6328    5.1988   53.9364 H       1  ZINC000626935317    0.1100
     44 H44        -1.4478    2.8116   52.0737 H       1  ZINC000626935317    0.1400
     45 H45        -0.0576    3.7042   53.9319 H       1  ZINC000626935317    0.1400
     46 H46        -0.5221    5.9586   54.8068 H       1  ZINC000626935317    0.1600
     47 H47        -3.6358    6.4777   52.1122 H       1  ZINC000626935317    0.1500
@<TRIPOS>BOND
     1     1     2    1
     2     1    28    1
     3     1    29    1
     4     1    30    1
     5     2    20    1
     6     2     3   am
     7     3     4    2
     8     3     5    1
     9     5     6    1
    10     5    31    1
    11     5    32    1
    12     6     7    1
    13     6     8    1
    14     6    20    1
    15     8     9    2
    16     8    10   am
    17    10    11    1
    18    10    33    1
    19    11    19    1
    20    11    12    1
    21    11    34    1
    22    12    13    1
    23    12    35    1
    24    12    36    1
    25    13    14    1
    26    13    19    1
    27    13    37    1
    28    14    15   am
    29    14    38    1
    30    15    16    1
    31    15    17    2
    32    15    18    2
    33    16    39    1
    34    16    40    1
    35    16    41    1
    36    19    42    1
    37    19    43    1
    38    20    21    1
    39    20    22    1
    40    22    27   ar
    41    22    23   ar
    42    23    24   ar
    43    23    44    1
    44    24    25   ar
    45    24    45    1
    46    25    26   ar
    47    25    46    1
    48    26    27   ar
    49    27    47    1
@<TRIPOS>SUBSTRUCTURE
     1 ZINC000626935317        1 TEMP              0 ****  ****    0 ROOT


##########                                Name:    ZINC000866717058
##########                DOCK_Rotatable_Bonds:                   7
##########                         Heavy_Atoms:                  25
##########                    Molecular_Weight:             380.388
##########                DOCK_Rotatable_Bonds:                   7
##########                       Formal_Charge:                0.04
##########                     HBond_Acceptors:                  10
##########                        HBond_Donors:                   1
##########                         Heavy_Atoms:                  25
##########                          Grid_Score:          -29.398436
##########                     Grid_vdw_energy:          -28.345932
##########                      Grid_es_energy:           -1.052503
##########           Internal_energy_repulsive:           14.033055

@<TRIPOS>MOLECULE
ZINC000866717058
 44 45 1 0 0
SMALL
USER_CHARGES


@<TRIPOS>ATOM
      1 C1         -2.0162    2.4455   47.9071 C.3     1  ZINC000866717058   -0.1100
      2 C2         -2.2549    2.6201   49.3847 C.ar    1  ZINC000866717058    0.2400
      3 N3         -3.4538    2.4007   49.8819 N.ar    1  ZINC000866717058   -0.5500
      4 C4         -3.7102    2.5416   51.1736 C.ar    1  ZINC000866717058    0.3500
      5 O5         -4.9614    2.3032   51.6359 O.3     1  ZINC000866717058   -0.2800
      6 C6         -5.9955    3.1843   51.1929 C.3     1  ZINC000866717058    0.0500
      7 H7         -5.5840    3.8976   50.4788 H       1  ZINC000866717058    0.1300
      8 C8         -7.1045    2.3721   50.5210 C.3     1  ZINC000866717058   -0.1700
      9 C9         -6.5714    3.9387   52.3929 C.3     1  ZINC000866717058    0.4600
     10 F10        -5.5336    4.5626   53.0934 F       1  ZINC000866717058   -0.1700
     11 F11        -7.4784    4.9051   51.9447 F       1  ZINC000866717058   -0.1700
     12 F12        -7.2291    3.0383   53.2379 F       1  ZINC000866717058   -0.1700
     13 C13        -2.7133    2.9304   52.0627 C.ar    1  ZINC000866717058   -0.1900
     14 C14        -1.4408    3.1713   51.5862 C.ar    1  ZINC000866717058    0.0000
     15 C15        -1.2013    3.0075   50.2140 C.ar    1  ZINC000866717058   -0.2300
     16 C16         0.1422    3.2522   49.6537 C.2     1  ZINC000866717058    0.5800
     17 O17         0.4147    4.3382   49.1796 O.2     1  ZINC000866717058   -0.5200
     18 N18         1.0669    2.2717   49.6674 N.am    1  ZINC000866717058   -0.7400
     19 C19         2.3998    2.5141   49.1097 C.3     1  ZINC000866717058    0.1400
     20 C20         3.1507    1.1866   48.9880 C.3     1  ZINC000866717058   -0.5700
     21 H21         4.2074    1.3589   48.7835 H       1  ZINC000866717058    0.1500
     22 C22         2.9704    0.3329   50.2698 C.3     1  ZINC000866717058   -0.1100
     23 C23         3.3145   -1.1168   49.8852 C.3     1  ZINC000866717058   -0.1200
     24 C24         2.5876   -1.4655   48.5712 C.3     1  ZINC000866717058   -0.5900
     25 S25         2.4005    0.1314   47.6907 S.o2    1  ZINC000866717058    2.3700
     26 O26         1.0196    0.4454   47.5732 O.2     1  ZINC000866717058   -0.9200
     27 O27         3.2296    0.1327   46.5367 O.2     1  ZINC000866717058   -0.9300
     28 H28        -1.6023    1.4545   47.7206 H       1  ZINC000866717058    0.0900
     29 H29        -2.9595    2.5519   47.3716 H       1  ZINC000866717058    0.0700
     30 H30        -1.3139    3.2036   47.5603 H       1  ZINC000866717058    0.1100
     31 H31        -7.8933    3.0442   50.1831 H       1  ZINC000866717058    0.0900
     32 H32        -6.6943    1.8347   49.6661 H       1  ZINC000866717058    0.0900
     33 H33        -7.5161    1.6589   51.2351 H       1  ZINC000866717058    0.0800
     34 H34        -2.9328    3.0427   53.1142 H       1  ZINC000866717058    0.1600
     35 H35        -0.6481    3.4746   52.2540 H       1  ZINC000866717058    0.1500
     36 H36         0.8499    1.4057   50.0467 H       1  ZINC000866717058    0.4000
     37 H37         2.3039    2.9689   48.1238 H       1  ZINC000866717058    0.1000
     38 H38         2.9523    3.1851   49.7672 H       1  ZINC000866717058    0.1000
     39 H39         3.6468    0.6828   51.0495 H       1  ZINC000866717058    0.1100
     40 H40         1.9385    0.3923   50.6158 H       1  ZINC000866717058    0.0900
     41 H41         4.3912   -1.2130   49.7449 H       1  ZINC000866717058    0.0900
     42 H42         2.9880   -1.7929   50.6752 H       1  ZINC000866717058    0.1000
     43 H43         3.1885   -2.1542   47.9773 H       1  ZINC000866717058    0.1400
     44 H44         1.6107   -1.9002   48.7829 H       1  ZINC000866717058    0.1400
@<TRIPOS>BOND
     1     1     2    1
     2     1    28    1
     3     1    29    1
     4     1    30    1
     5     2    15   ar
     6     2     3   ar
     7     3     4   ar
     8     4     5    1
     9     4    13   ar
    10     5     6    1
    11     6     7    1
    12     6     8    1
    13     6     9    1
    14     8    31    1
    15     8    32    1
    16     8    33    1
    17     9    10    1
    18     9    11    1
    19     9    12    1
    20    13    14   ar
    21    13    34    1
    22    14    15   ar
    23    14    35    1
    24    15    16    1
    25    16    17    2
    26    16    18   am
    27    18    19    1
    28    18    36    1
    29    19    20    1
    30    19    37    1
    31    19    38    1
    32    20    21    1
    33    20    25    1
    34    20    22    1
    35    22    23    1
    36    22    39    1
    37    22    40    1
    38    23    24    1
    39    23    41    1
    40    23    42    1
    41    24    25    1
    42    24    43    1
    43    24    44    1
    44    25    26    2
    45    25    27    2
@<TRIPOS>SUBSTRUCTURE
     1 ZINC000866717058        1 TEMP              0 ****  ****    0 ROOT


##########                                Name:    ZINC001436455587
##########                DOCK_Rotatable_Bonds:                   9
##########                         Heavy_Atoms:                  21
##########                    Molecular_Weight:             378.693
##########                DOCK_Rotatable_Bonds:                   9
##########                       Formal_Charge:          -0.0200001
##########                     HBond_Acceptors:                   5
##########                        HBond_Donors:                   1
##########                         Heavy_Atoms:                  21
##########                          Grid_Score:          -29.388437
##########                     Grid_vdw_energy:          -30.007364
##########                      Grid_es_energy:            0.618926
##########           Internal_energy_repulsive:            9.734488

@<TRIPOS>MOLECULE
ZINC001436455587
 42 42 1 0 0
SMALL
USER_CHARGES


@<TRIPOS>ATOM
      1 C1          2.6811   -1.9103   49.9354 C.3     1  ZINC001436455587   -0.1500
      2 C2          3.2857   -1.0948   48.7907 C.3     1  ZINC001436455587   -0.1300
      3 C3          2.2404   -0.1140   48.2556 C.3     1  ZINC001436455587   -0.1400
      4 C4          2.8543    0.7224   47.1312 C.3     1  ZINC001436455587    0.0800
      5 H5          3.5242    1.4689   47.5579 H       1  ZINC001436455587    0.0700
      6 C6          1.7406    1.4235   46.3506 C.3     1  ZINC001436455587    0.1200
      7 N7          0.7900    2.0245   47.2894 N.am    1  ZINC001436455587   -0.7200
      8 C8         -0.2697    2.7159   46.8252 C.2     1  ZINC001436455587    0.5200
      9 O9         -0.4372    2.8392   45.6305 O.2     1  ZINC001436455587   -0.5100
     10 C10        -1.2466    3.3358   47.7910 C.3     1  ZINC001436455587    0.0600
     11 H11        -2.2396    3.3538   47.3419 H       1  ZINC001436455587    0.1000
     12 C12        -0.8069    4.7652   48.1139 C.3     1  ZINC001436455587   -0.1800
     13 O13        -1.2816    2.5650   48.9937 O.3     1  ZINC001436455587   -0.2700
     14 C14        -2.4365    2.5913   49.7102 C.ar    1  ZINC001436455587    0.1600
     15 C15        -3.6150    2.1284   49.1448 C.ar    1  ZINC001436455587   -0.2000
     16 C16        -4.7880    2.1554   49.8749 C.ar    1  ZINC001436455587   -0.0500
     17 C17        -4.7876    2.6443   51.1690 C.ar    1  ZINC001436455587   -0.0700
     18 Cl18       -6.2629    2.6775   52.0835 Cl      1  ZINC001436455587   -0.0600
     19 C19        -3.6128    3.1064   51.7358 C.ar    1  ZINC001436455587   -0.0400
     20 C20        -2.4365    3.0762   51.0110 C.ar    1  ZINC001436455587   -0.1200
     21 Br21       -0.8312    3.7078   51.7856 Br      1  ZINC001436455587   -0.0100
     22 O22         3.5895   -0.1296   46.2505 O.3     1  ZINC001436455587   -0.3800
     23 C23         4.2394    0.5612   45.1816 C.3     1  ZINC001436455587    0.0200
     24 H24         2.3702   -1.2383   50.7354 H       1  ZINC001436455587    0.0500
     25 H25         1.8165   -2.4643   49.5697 H       1  ZINC001436455587    0.0600
     26 H26         3.4257   -2.6090   50.3166 H       1  ZINC001436455587    0.0600
     27 H27         4.1502   -0.5407   49.1563 H       1  ZINC001436455587    0.0600
     28 H28         3.5965   -1.7667   47.9906 H       1  ZINC001436455587    0.0700
     29 H29         1.3851   -0.6690   47.8701 H       1  ZINC001436455587    0.0800
     30 H30         1.9136    0.5438   49.0609 H       1  ZINC001436455587    0.0800
     31 H31         2.1724    2.2024   45.7221 H       1  ZINC001436455587    0.0800
     32 H32         1.2228    0.6969   45.7245 H       1  ZINC001436455587    0.0800
     33 H33         0.9234    1.9250   48.2451 H       1  ZINC001436455587    0.4000
     34 H34        -1.5135    5.2136   48.8125 H       1  ZINC001436455587    0.0800
     35 H35         0.1861    4.7473   48.5631 H       1  ZINC001436455587    0.0800
     36 H36        -0.7803    5.3533   47.1966 H       1  ZINC001436455587    0.0800
     37 H37        -3.6161    1.7473   48.1344 H       1  ZINC001436455587    0.1500
     38 H38        -5.7059    1.7949   49.4346 H       1  ZINC001436455587    0.1400
     39 H39        -3.6144    3.4874   52.7464 H       1  ZINC001436455587    0.1500
     40 H40         5.0060    1.2208   45.5882 H       1  ZINC001436455587    0.0500
     41 H41         4.7014   -0.1619   44.5094 H       1  ZINC001436455587    0.0900
     42 H42         3.5064    1.1516   44.6319 H       1  ZINC001436455587    0.0400
@<TRIPOS>BOND
     1     1     2    1
     2     1    24    1
     3     1    25    1
     4     1    26    1
     5     2     3    1
     6     2    27    1
     7     2    28    1
     8     3     4    1
     9     3    29    1
    10     3    30    1
    11     4     5    1
    12     4     6    1
    13     4    22    1
    14     6     7    1
    15     6    31    1
    16     6    32    1
    17     7     8   am
    18     7    33    1
    19     8     9    2
    20     8    10    1
    21    10    11    1
    22    10    12    1
    23    10    13    1
    24    12    34    1
    25    12    35    1
    26    12    36    1
    27    13    14    1
    28    14    20   ar
    29    14    15   ar
    30    15    16   ar
    31    15    37    1
    32    16    17   ar
    33    16    38    1
    34    17    18    1
    35    17    19   ar
    36    19    20   ar
    37    19    39    1
    38    20    21    1
    39    22    23    1
    40    23    40    1
    41    23    41    1
    42    23    42    1
@<TRIPOS>SUBSTRUCTURE
     1 ZINC001436455587        1 TEMP              0 ****  ****    0 ROOT


##########                                Name:    ZINC000508571532
##########                DOCK_Rotatable_Bonds:                   9
##########                         Heavy_Atoms:                  30
##########                    Molecular_Weight:             422.407
##########                DOCK_Rotatable_Bonds:                   9
##########                       Formal_Charge:           0.0100001
##########                     HBond_Acceptors:                  10
##########                        HBond_Donors:                   0
##########                         Heavy_Atoms:                  30
##########                          Grid_Score:          -29.382874
##########                     Grid_vdw_energy:          -28.202404
##########                      Grid_es_energy:           -1.180469
##########           Internal_energy_repulsive:           23.190231

@<TRIPOS>MOLECULE
ZINC000508571532
 51 53 1 0 0
SMALL
USER_CHARGES


@<TRIPOS>ATOM
      1 C1          4.2406    5.8708   40.2243 C.3     1  ZINC000508571532    0.0300
      2 O2          4.7535    4.8562   41.0901 O.3     1  ZINC000508571532   -0.3200
      3 C3          3.9245    4.4016   42.0675 C.ar    1  ZINC000508571532    0.0900
      4 C4          4.3607    3.4210   42.9459 C.ar    1  ZINC000508571532   -0.1700
      5 C5          3.5187    2.9591   43.9389 C.ar    1  ZINC000508571532   -0.1100
      6 C6          2.2373    3.4764   44.0575 C.ar    1  ZINC000508571532    0.0900
      7 O7          1.4082    3.0214   45.0347 O.3     1  ZINC000508571532   -0.3100
      8 C8          0.1023    3.5982   45.0981 C.3     1  ZINC000508571532    0.1500
      9 C9         -0.6678    2.9742   46.2333 C.2     1  ZINC000508571532    0.1700
     10 N10        -1.3299    1.8527   46.1929 N.2     1  ZINC000508571532   -0.2500
     11 N11        -1.8685    1.6175   47.3359 N.2     1  ZINC000508571532   -0.3000
     12 C12        -1.5765    2.5842   48.1737 C.2     1  ZINC000508571532    0.3500
     13 N13        -1.9792    2.6778   49.4965 N.3     1  ZINC000508571532   -0.4600
     14 C14        -0.8214    2.6784   50.4005 C.3     1  ZINC000508571532    0.0300
     15 C15        -2.8141    3.8675   49.7096 C.3     1  ZINC000508571532    0.1100
     16 C16        -4.0706    3.4746   50.4431 C.ar    1  ZINC000508571532   -0.0900
     17 C17        -4.6654    2.2539   50.1906 C.ar    1  ZINC000508571532   -0.0600
     18 C18        -5.8186    1.8931   50.8630 C.ar    1  ZINC000508571532   -0.1300
     19 C19        -6.3788    2.7524   51.7898 C.ar    1  ZINC000508571532   -0.0700
     20 C20        -5.7874    3.9745   52.0463 C.ar    1  ZINC000508571532   -0.1900
     21 C21        -4.6277    4.3366   51.3770 C.ar    1  ZINC000508571532    0.1100
     22 O22        -4.0441    5.5380   51.6275 O.3     1  ZINC000508571532   -0.3100
     23 C23        -3.3311    5.6686   52.8590 C.3     1  ZINC000508571532    0.6000
     24 F24        -4.0802    6.4425   53.7519 F       1  ZINC000508571532   -0.1600
     25 F25        -3.1144    4.4007   53.4092 F       1  ZINC000508571532   -0.1300
     26 F26        -2.1007    6.2905   52.6218 F       1  ZINC000508571532   -0.1600
     27 N27        -0.7965    3.4772   47.4984 N.pl3   1  ZINC000508571532   -0.4500
     28 C28        -0.2238    4.7215   48.0178 C.3     1  ZINC000508571532    0.0800
     29 C29         1.8016    4.4581   43.1800 C.ar    1  ZINC000508571532   -0.1700
     30 C30         2.6449    4.9226   42.1895 C.ar    1  ZINC000508571532   -0.1100
     31 H31         5.0013    6.1426   39.4925 H       1  ZINC000508571532    0.1000
     32 H32         3.3573    5.4952   39.7078 H       1  ZINC000508571532    0.0600
     33 H33         3.9721    6.7485   40.8123 H       1  ZINC000508571532    0.0600
     34 H34         5.3585    3.0182   42.8535 H       1  ZINC000508571532    0.1400
     35 H35         3.8580    2.1950   44.6225 H       1  ZINC000508571532    0.1300
     36 H36         0.1871    4.6722   45.2636 H       1  ZINC000508571532    0.0800
     37 H37        -0.4215    3.4154   44.1599 H       1  ZINC000508571532    0.1000
     38 H38        -0.2586    3.6026   50.2696 H       1  ZINC000508571532    0.0600
     39 H39        -1.1657    2.6057   51.4321 H       1  ZINC000508571532    0.0800
     40 H40        -0.1804    1.8272   50.1706 H       1  ZINC000508571532    0.0700
     41 H41        -2.2617    4.5979   50.3007 H       1  ZINC000508571532    0.0700
     42 H42        -3.0773    4.3040   48.7461 H       1  ZINC000508571532    0.0900
     43 H43        -4.2296    1.5808   49.4671 H       1  ZINC000508571532    0.1400
     44 H44        -6.2825    0.9384   50.6636 H       1  ZINC000508571532    0.1300
     45 H45        -7.2796    2.4684   52.3134 H       1  ZINC000508571532    0.1400
     46 H46        -6.2256    4.6456   52.7701 H       1  ZINC000508571532    0.1400
     47 H47         0.7952    4.5381   48.3585 H       1  ZINC000508571532    0.0900
     48 H48        -0.2134    5.4738   47.2291 H       1  ZINC000508571532    0.0900
     49 H49        -0.8272    5.0785   48.8524 H       1  ZINC000508571532    0.1000
     50 H50         0.8039    4.8611   43.2726 H       1  ZINC000508571532    0.1400
     51 H51         2.3057    5.6870   41.5061 H       1  ZINC000508571532    0.1400
@<TRIPOS>BOND
     1     1     2    1
     2     1    31    1
     3     1    32    1
     4     1    33    1
     5     2     3    1
     6     3    30   ar
     7     3     4   ar
     8     4     5   ar
     9     4    34    1
    10     5     6   ar
    11     5    35    1
    12     6     7    1
    13     6    29   ar
    14     7     8    1
    15     8     9    1
    16     8    36    1
    17     8    37    1
    18     9    27    1
    19     9    10    2
    20    10    11    1
    21    11    12    2
    22    12    13    1
    23    12    27    1
    24    13    14    1
    25    13    15    1
    26    14    38    1
    27    14    39    1
    28    14    40    1
    29    15    16    1
    30    15    41    1
    31    15    42    1
    32    16    21   ar
    33    16    17   ar
    34    17    18   ar
    35    17    43    1
    36    18    19   ar
    37    18    44    1
    38    19    20   ar
    39    19    45    1
    40    20    21   ar
    41    20    46    1
    42    21    22    1
    43    22    23    1
    44    23    24    1
    45    23    25    1
    46    23    26    1
    47    27    28    1
    48    28    47    1
    49    28    48    1
    50    28    49    1
    51    29    30   ar
    52    29    50    1
    53    30    51    1
@<TRIPOS>SUBSTRUCTURE
     1 ZINC000508571532        1 TEMP              0 ****  ****    0 ROOT


##########                                Name:    ZINC000451500596
##########                DOCK_Rotatable_Bonds:                   7
##########                         Heavy_Atoms:                  25
##########                    Molecular_Weight:             365.497
##########                DOCK_Rotatable_Bonds:                   7
##########                       Formal_Charge:           0.0400004
##########                     HBond_Acceptors:                   7
##########                        HBond_Donors:                   2
##########                         Heavy_Atoms:                  25
##########                          Grid_Score:          -29.368492
##########                     Grid_vdw_energy:          -28.235527
##########                      Grid_es_energy:           -1.132966
##########           Internal_energy_repulsive:           10.191236

@<TRIPOS>MOLECULE
ZINC000451500596
 52 54 1 0 0
SMALL
USER_CHARGES


@<TRIPOS>ATOM
      1 C1        -13.4072    0.8902   46.4637 C.3     1  ZINC000451500596   -0.6700
      2 S2        -14.0510   -0.5070   47.4249 S.o2    1  ZINC000451500596    2.6100
      3 O3        -15.3825   -0.2490   47.8491 O.2     1  ZINC000451500596   -0.9500
      4 O4        -13.7046   -1.7389   46.8070 O.2     1  ZINC000451500596   -0.9600
      5 N5        -13.1657   -0.4889   48.8242 N.am    1  ZINC000451500596   -1.1200
      6 C6        -13.1994    0.6872   49.6970 C.3     1  ZINC000451500596    0.1200
      7 C7        -12.5956    0.3306   51.0569 C.3     1  ZINC000451500596   -0.1000
      8 H8        -11.8216   -0.4270   50.9343 H       1  ZINC000451500596    0.0900
      9 C9        -13.6970   -0.1879   52.0045 C.3     1  ZINC000451500596   -0.1200
     10 C10       -13.3033    0.3797   53.3909 C.3     1  ZINC000451500596   -0.1300
     11 C11       -12.7663    1.7902   53.0428 C.3     1  ZINC000451500596   -0.1300
     12 C12       -12.0027    1.5880   51.7165 C.3     1  ZINC000451500596    0.1400
     13 H13       -12.1455    2.4523   51.0679 H       1  ZINC000451500596    0.1000
     14 N14       -10.5757    1.3918   51.9839 N.am    1  ZINC000451500596   -0.7200
     15 C15        -9.7411    2.4499   51.9976 C.2     1  ZINC000451500596    0.5300
     16 O16       -10.1711    3.5643   51.7871 O.2     1  ZINC000451500596   -0.5300
     17 C17        -8.2735    2.2485   52.2744 C.3     1  ZINC000451500596   -0.1300
     18 H18        -7.9873    2.7390   53.2048 H       1  ZINC000451500596    0.1000
     19 C19        -7.9266    0.7371   52.3219 C.3     1  ZINC000451500596   -0.1200
     20 C20        -6.4277    0.7476   51.9312 C.3     1  ZINC000451500596    0.0500
     21 N21        -6.3111    1.8106   50.9103 N.3     1  ZINC000451500596   -0.4900
     22 C22        -5.0757    2.4563   50.9987 C.ar    1  ZINC000451500596    0.0800
     23 C23        -4.2089    2.4525   49.9133 C.ar    1  ZINC000451500596   -0.0900
     24 C24        -2.9884    3.0922   50.0040 C.ar    1  ZINC000451500596   -0.1100
     25 C25        -2.6285    3.7357   51.1739 C.ar    1  ZINC000451500596   -0.1200
     26 C26        -3.4889    3.7413   52.2565 C.ar    1  ZINC000451500596   -0.1100
     27 C27        -4.7134    3.1084   52.1706 C.ar    1  ZINC000451500596   -0.1500
     28 C28        -7.4199    2.7685   51.0986 C.3     1  ZINC000451500596    0.0600
     29 H29       -13.5512    1.8139   47.0243 H       1  ZINC000451500596    0.1300
     30 H30       -12.3440    0.7419   46.2746 H       1  ZINC000451500596    0.1300
     31 H31       -13.9396    0.9545   45.5147 H       1  ZINC000451500596    0.1300
     32 H32       -12.6248   -1.2569   49.0659 H       1  ZINC000451500596    0.4200
     33 H33       -12.6223    1.4930   49.2435 H       1  ZINC000451500596    0.0700
     34 H34       -14.2316    1.0106   49.8313 H       1  ZINC000451500596    0.0900
     35 H35       -14.6722    0.1919   51.6998 H       1  ZINC000451500596    0.0800
     36 H36       -13.7005   -1.2776   52.0254 H       1  ZINC000451500596    0.0700
     37 H37       -14.1748    0.4480   54.0419 H       1  ZINC000451500596    0.0700
     38 H38       -12.5236   -0.2282   53.8498 H       1  ZINC000451500596    0.0700
     39 H39       -13.5912    2.4894   52.9058 H       1  ZINC000451500596    0.0800
     40 H40       -12.0905    2.1439   53.8214 H       1  ZINC000451500596    0.0700
     41 H41       -10.2316    0.5005   52.1510 H       1  ZINC000451500596    0.4000
     42 H42        -8.0656    0.3359   53.3259 H       1  ZINC000451500596    0.0800
     43 H43        -8.5158    0.1783   51.5948 H       1  ZINC000451500596    0.0800
     44 H44        -5.8112    0.9848   52.7982 H       1  ZINC000451500596    0.0600
     45 H45        -6.1384   -0.2156   51.5109 H       1  ZINC000451500596    0.0900
     46 H46        -4.4891    1.9496   48.9994 H       1  ZINC000451500596    0.1300
     47 H47        -2.3140    3.0897   49.1603 H       1  ZINC000451500596    0.1300
     48 H48        -1.6731    4.2346   51.2424 H       1  ZINC000451500596    0.1200
     49 H49        -3.2048    4.2448   53.1687 H       1  ZINC000451500596    0.1200
     50 H50        -5.3851    3.1134   53.0163 H       1  ZINC000451500596    0.1200
     51 H51        -8.0272    2.8150   50.1947 H       1  ZINC000451500596    0.1000
     52 H52        -7.0214    3.7559   51.3315 H       1  ZINC000451500596    0.0700
@<TRIPOS>BOND
     1     1     2    1
     2     1    29    1
     3     1    30    1
     4     1    31    1
     5     2     3    2
     6     2     4    2
     7     2     5   am
     8     5     6    1
     9     5    32    1
    10     6     7    1
    11     6    33    1
    12     6    34    1
    13     7     8    1
    14     7    12    1
    15     7     9    1
    16     9    10    1
    17     9    35    1
    18     9    36    1
    19    10    11    1
    20    10    37    1
    21    10    38    1
    22    11    12    1
    23    11    39    1
    24    11    40    1
    25    12    13    1
    26    12    14    1
    27    14    15   am
    28    14    41    1
    29    15    16    2
    30    15    17    1
    31    17    18    1
    32    17    28    1
    33    17    19    1
    34    19    20    1
    35    19    42    1
    36    19    43    1
    37    20    21    1
    38    20    44    1
    39    20    45    1
    40    21    22    1
    41    21    28    1
    42    22    27   ar
    43    22    23   ar
    44    23    24   ar
    45    23    46    1
    46    24    25   ar
    47    24    47    1
    48    25    26   ar
    49    25    48    1
    50    26    27   ar
    51    26    49    1
    52    27    50    1
    53    28    51    1
    54    28    52    1
@<TRIPOS>SUBSTRUCTURE
     1 ZINC000451500596        1 TEMP              0 ****  ****    0 ROOT


##########                                Name:    ZINC000680410869
##########                DOCK_Rotatable_Bonds:                   6
##########                         Heavy_Atoms:                  24
##########                    Molecular_Weight:             335.354
##########                DOCK_Rotatable_Bonds:                   6
##########                       Formal_Charge:        -1.04308e-07
##########                     HBond_Acceptors:                   7
##########                        HBond_Donors:                   0
##########                         Heavy_Atoms:                  24
##########                          Grid_Score:          -29.358942
##########                     Grid_vdw_energy:          -27.970091
##########                      Grid_es_energy:           -1.388851
##########           Internal_energy_repulsive:           11.557530

@<TRIPOS>MOLECULE
ZINC000680410869
 43 45 1 0 0
SMALL
USER_CHARGES


@<TRIPOS>ATOM
      1 O1         -3.4329    2.2624   48.9314 O.2     1  ZINC000680410869   -0.5200
      2 C2         -3.5855    2.8108   50.0056 C.2     1  ZINC000680410869    0.6100
      3 C3         -4.8720    2.6888   50.7210 C.2     1  ZINC000680410869    0.0100
      4 N4         -5.3736    1.5913   51.2515 N.2     1  ZINC000680410869   -0.2500
      5 N5         -6.5087    1.8443   51.7972 N.pl3   1  ZINC000680410869   -0.3500
      6 C6         -7.3474    0.8577   52.4823 C.3     1  ZINC000680410869    0.5000
      7 F7         -8.6938    1.1156   52.2026 F       1  ZINC000680410869   -0.1600
      8 F8         -7.0161   -0.4262   52.0362 F       1  ZINC000680410869   -0.1700
      9 C9         -6.8172    3.1505   51.6492 C.2     1  ZINC000680410869    0.0100
     10 C10        -5.7977    3.7291   50.9724 C.2     1  ZINC000680410869   -0.1700
     11 N11        -2.5789    3.5256   50.5463 N.am    1  ZINC000680410869   -0.6000
     12 C12        -1.2884    3.6614   49.8525 C.3     1  ZINC000680410869    0.0800
     13 C13        -0.1697    3.3052   50.8381 C.3     1  ZINC000680410869    0.0500
     14 O14        -0.3323    4.0736   52.0327 O.3     1  ZINC000680410869   -0.3700
     15 C15        -1.5488    3.8114   52.7362 C.3     1  ZINC000680410869    0.0800
     16 H16        -1.6051    2.7512   52.9836 H       1  ZINC000680410869    0.0600
     17 C17        -1.5837    4.6388   54.0227 C.3     1  ZINC000680410869   -0.1000
     18 C18        -2.5895    4.0236   54.9978 C.3     1  ZINC000680410869   -0.0800
     19 C19        -1.8532    3.4315   56.1718 C.ar    1  ZINC000680410869   -0.0800
     20 C20        -2.3032    3.6636   57.4581 C.ar    1  ZINC000680410869   -0.1200
     21 C21        -1.6278    3.1205   58.5351 C.ar    1  ZINC000680410869   -0.1200
     22 C22        -0.5028    2.3449   58.3258 C.ar    1  ZINC000680410869   -0.1300
     23 C23        -0.0535    2.1122   57.0394 C.ar    1  ZINC000680410869   -0.1200
     24 C24        -0.7312    2.6516   55.9622 C.ar    1  ZINC000680410869   -0.1200
     25 C25        -2.7401    4.1982   51.8451 C.3     1  ZINC000680410869    0.0600
     26 H26        -7.1807    0.9230   53.5574 H       1  ZINC000680410869    0.1700
     27 H27        -7.7092    3.6428   52.0077 H       1  ZINC000680410869    0.1900
     28 H28        -5.7115    4.7654   50.6806 H       1  ZINC000680410869    0.1700
     29 H29        -1.2566    2.9828   49.0002 H       1  ZINC000680410869    0.1000
     30 H30        -1.1623    4.6884   49.5097 H       1  ZINC000680410869    0.0800
     31 H31        -0.2209    2.2432   51.0786 H       1  ZINC000680410869    0.0600
     32 H32         0.7973    3.5312   50.3886 H       1  ZINC000680410869    0.1100
     33 H33        -0.5933    4.6448   54.4779 H       1  ZINC000680410869    0.0800
     34 H34        -1.8825    5.6608   53.7893 H       1  ZINC000680410869    0.0800
     35 H35        -3.2734    4.7959   55.3498 H       1  ZINC000680410869    0.0700
     36 H36        -3.1547    3.2412   54.4912 H       1  ZINC000680410869    0.0800
     37 H37        -3.1822    4.2695   57.6217 H       1  ZINC000680410869    0.1200
     38 H38        -1.9790    3.3024   59.5401 H       1  ZINC000680410869    0.1200
     39 H39         0.0252    1.9213   59.1672 H       1  ZINC000680410869    0.1200
     40 H40         0.8257    1.5065   56.8758 H       1  ZINC000680410869    0.1200
     41 H41        -0.3802    2.4698   54.9572 H       1  ZINC000680410869    0.1200
     42 H42        -2.7580    5.2791   51.7052 H       1  ZINC000680410869    0.0800
     43 H43        -3.6693    3.8726   52.3128 H       1  ZINC000680410869    0.1300
@<TRIPOS>BOND
     1     1     2    2
     2     2     3    1
     3     2    11   am
     4     3    10    1
     5     3     4    2
     6     4     5    1
     7     5     6    1
     8     5     9    1
     9     6     7    1
    10     6     8    1
    11     6    26    1
    12     9    10    2
    13     9    27    1
    14    10    28    1
    15    11    25    1
    16    11    12    1
    17    12    13    1
    18    12    29    1
    19    12    30    1
    20    13    14    1
    21    13    31    1
    22    13    32    1
    23    14    15    1
    24    15    16    1
    25    15    17    1
    26    15    25    1
    27    17    18    1
    28    17    33    1
    29    17    34    1
    30    18    19    1
    31    18    35    1
    32    18    36    1
    33    19    24   ar
    34    19    20   ar
    35    20    21   ar
    36    20    37    1
    37    21    22   ar
    38    21    38    1
    39    22    23   ar
    40    22    39    1
    41    23    24   ar
    42    23    40    1
    43    24    41    1
    44    25    42    1
    45    25    43    1
@<TRIPOS>SUBSTRUCTURE
     1 ZINC000680410869        1 TEMP              0 ****  ****    0 ROOT


##########                                Name:    ZINC000477589488
##########                DOCK_Rotatable_Bonds:                   6
##########                         Heavy_Atoms:                  32
##########                    Molecular_Weight:             423.517
##########                DOCK_Rotatable_Bonds:                   6
##########                       Formal_Charge:        -8.19564e-07
##########                     HBond_Acceptors:                   6
##########                        HBond_Donors:                   1
##########                         Heavy_Atoms:                  32
##########                          Grid_Score:          -29.342102
##########                     Grid_vdw_energy:          -27.668369
##########                      Grid_es_energy:           -1.673733
##########           Internal_energy_repulsive:           20.524538

@<TRIPOS>MOLECULE
ZINC000477589488
 57 61 1 0 0
SMALL
USER_CHARGES


@<TRIPOS>ATOM
      1 O1         -3.4471    5.9618   55.5667 O.2     1  ZINC000477589488   -0.5800
      2 C2         -3.4774    4.8120   55.9610 C.2     1  ZINC000477589488    0.7100
      3 N3         -4.4969    4.0047   55.6070 N.am    1  ZINC000477589488   -0.7400
      4 C4         -5.5718    4.5143   54.7520 C.3     1  ZINC000477589488    0.2500
      5 H5         -5.2305    5.4111   54.2348 H       1  ZINC000477589488    0.1100
      6 C6         -6.7720    4.8492   55.5996 C.ar    1  ZINC000477589488   -0.0900
      7 C7         -7.7162    5.7465   55.1367 C.ar    1  ZINC000477589488   -0.1000
      8 C8         -8.8172    6.0538   55.9141 C.ar    1  ZINC000477589488   -0.1200
      9 C9         -8.9741    5.4634   57.1543 C.ar    1  ZINC000477589488   -0.1200
     10 C10        -8.0304    4.5655   57.6167 C.ar    1  ZINC000477589488   -0.1200
     11 C11        -6.9316    4.2549   56.8374 C.ar    1  ZINC000477589488   -0.1000
     12 C12        -5.9493    3.4637   53.7396 C.ar    1  ZINC000477589488   -0.0700
     13 C13        -5.1966    3.3144   52.5626 C.ar    1  ZINC000477589488   -0.0400
     14 C14        -4.0832    4.1308   52.2997 C.ar    1  ZINC000477589488   -0.1100
     15 C15        -3.3776    3.9571   51.1492 C.ar    1  ZINC000477589488   -0.1100
     16 C16        -3.7422    2.9804   50.2241 C.ar    1  ZINC000477589488   -0.1100
     17 C17        -4.8145    2.1719   50.4446 C.ar    1  ZINC000477589488   -0.1100
     18 C18        -5.5672    2.3207   51.6221 C.ar    1  ZINC000477589488   -0.0500
     19 C19        -6.6801    1.5044   51.8849 C.ar    1  ZINC000477589488   -0.1000
     20 C20        -7.3852    1.6772   53.0365 C.ar    1  ZINC000477589488   -0.1100
     21 C21        -7.0179    2.6507   53.9633 C.ar    1  ZINC000477589488   -0.1100
     22 N22        -2.4885    4.3432   56.7477 N.am    1  ZINC000477589488   -0.6300
     23 C23        -2.4992    2.9524   57.2259 C.3     1  ZINC000477589488    0.1300
     24 C24        -1.1412    2.3178   56.9079 C.3     1  ZINC000477589488    0.0500
     25 N25        -0.0704    3.1569   57.4620 N.3     1  ZINC000477589488   -0.4700
     26 C26         1.1664    2.5338   57.3366 C.ar    1  ZINC000477589488    0.2500
     27 C27         1.5905    1.6184   58.2990 C.ar    1  ZINC000477589488   -0.1300
     28 C28         2.8313    1.0250   58.1278 C.ar    1  ZINC000477589488   -0.0900
     29 C29         3.5747    1.3779   57.0104 C.ar    1  ZINC000477589488    0.0200
     30 N30         3.0957    2.2539   56.1496 N.ar    1  ZINC000477589488   -0.2200
     31 N31         1.9453    2.8032   56.2988 N.ar    1  ZINC000477589488   -0.2800
     32 C32        -0.0564    4.4856   56.8355 C.3     1  ZINC000477589488    0.0400
     33 C33        -1.3668    5.2073   57.1457 C.3     1  ZINC000477589488    0.1200
     34 H34        -4.5189    3.0863   55.9183 H       1  ZINC000477589488    0.3900
     35 H35        -7.5937    6.2077   54.1679 H       1  ZINC000477589488    0.1100
     36 H36        -9.5545    6.7553   55.5529 H       1  ZINC000477589488    0.1200
     37 H37        -9.8339    5.7041   57.7619 H       1  ZINC000477589488    0.1200
     38 H38        -8.1527    4.1045   58.5857 H       1  ZINC000477589488    0.1200
     39 H39        -6.1942    3.5533   57.1986 H       1  ZINC000477589488    0.1200
     40 H40        -3.7893    4.8922   53.0071 H       1  ZINC000477589488    0.1300
     41 H41        -2.5224    4.5858   50.9496 H       1  ZINC000477589488    0.1300
     42 H42        -3.1653    2.8636   49.3186 H       1  ZINC000477589488    0.1300
     43 H43        -5.0856    1.4198   49.7184 H       1  ZINC000477589488    0.1300
     44 H44        -6.9749    0.7441   51.1768 H       1  ZINC000477589488    0.1300
     45 H45        -8.2405    1.0487   53.2358 H       1  ZINC000477589488    0.1300
     46 H46        -7.5942    2.7668   54.8693 H       1  ZINC000477589488    0.1200
     47 H47        -2.6675    2.9368   58.3028 H       1  ZINC000477589488    0.0800
     48 H48        -3.2900    2.3977   56.7209 H       1  ZINC000477589488    0.1100
     49 H49        -1.0912    1.3237   57.3523 H       1  ZINC000477589488    0.1000
     50 H50        -1.0202    2.2401   55.8274 H       1  ZINC000477589488    0.0600
     51 H51         0.9716    1.3795   59.1513 H       1  ZINC000477589488    0.1500
     52 H52         3.2087    0.3093   58.8433 H       1  ZINC000477589488    0.1500
     53 H53         4.5458    0.9351   56.8462 H       1  ZINC000477589488    0.1700
     54 H54         0.7804    5.0637   57.2276 H       1  ZINC000477589488    0.1000
     55 H55         0.0496    4.3777   55.7561 H       1  ZINC000477589488    0.0600
     56 H56        -1.4091    6.1441   56.5901 H       1  ZINC000477589488    0.0800
     57 H57        -1.4294    5.4092   58.2149 H       1  ZINC000477589488    0.0900
@<TRIPOS>BOND
     1     1     2    2
     2     2     3   am
     3     2    22   am
     4     3     4    1
     5     3    34    1
     6     4     5    1
     7     4     6    1
     8     4    12    1
     9     6    11   ar
    10     6     7   ar
    11     7     8   ar
    12     7    35    1
    13     8     9   ar
    14     8    36    1
    15     9    10   ar
    16     9    37    1
    17    10    11   ar
    18    10    38    1
    19    11    39    1
    20    12    21   ar
    21    12    13   ar
    22    13    18   ar
    23    13    14   ar
    24    14    15   ar
    25    14    40    1
    26    15    16   ar
    27    15    41    1
    28    16    17   ar
    29    16    42    1
    30    17    18   ar
    31    17    43    1
    32    18    19   ar
    33    19    20   ar
    34    19    44    1
    35    20    21   ar
    36    20    45    1
    37    21    46    1
    38    22    33    1
    39    22    23    1
    40    23    24    1
    41    23    47    1
    42    23    48    1
    43    24    25    1
    44    24    49    1
    45    24    50    1
    46    25    26    1
    47    25    32    1
    48    26    31   ar
    49    26    27   ar
    50    27    28   ar
    51    27    51    1
    52    28    29   ar
    53    28    52    1
    54    29    30   ar
    55    29    53    1
    56    30    31   ar
    57    32    33    1
    58    32    54    1
    59    32    55    1
    60    33    56    1
    61    33    57    1
@<TRIPOS>SUBSTRUCTURE
     1 ZINC000477589488        1 TEMP              0 ****  ****    0 ROOT


##########                                Name:    ZINC001078748831
##########                DOCK_Rotatable_Bonds:                   6
##########                         Heavy_Atoms:                  23
##########                    Molecular_Weight:             333.417
##########                DOCK_Rotatable_Bonds:                   6
##########                       Formal_Charge:           0.0299999
##########                     HBond_Acceptors:                   9
##########                        HBond_Donors:                   2
##########                         Heavy_Atoms:                  23
##########                          Grid_Score:          -29.334143
##########                     Grid_vdw_energy:          -29.551889
##########                      Grid_es_energy:            0.217747
##########           Internal_energy_repulsive:            7.343816

@<TRIPOS>MOLECULE
ZINC001078748831
 42 45 1 0 0
SMALL
USER_CHARGES


@<TRIPOS>ATOM
      1 C1         -6.8595   -0.6507   51.3529 C.3     1  ZINC001078748831    0.1000
      2 N2         -6.3346    0.7134   51.4533 N.pl3   1  ZINC001078748831   -0.1400
      3 N3         -6.8246    1.6267   52.2132 N.2     1  ZINC001078748831   -0.2900
      4 C4         -6.1249    2.7261   52.0672 C.2     1  ZINC001078748831    0.0400
      5 C5         -5.1235    2.4205   51.1239 C.2     1  ZINC001078748831   -0.0500
      6 C6         -4.0714    3.3237   50.6119 C.2     1  ZINC001078748831    0.6200
      7 O7         -4.1222    4.5140   50.8531 O.2     1  ZINC001078748831   -0.5200
      8 N8         -3.0560    2.8274   49.8778 N.am    1  ZINC001078748831   -0.7000
      9 C9         -2.0141    3.7230   49.3689 C.3     1  ZINC001078748831    0.1500
     10 H10        -2.3759    4.7354   49.1895 H       1  ZINC001078748831    0.1100
     11 C11        -1.2147    3.1349   48.1920 C.3     1  ZINC001078748831   -0.1800
     12 C12        -0.2490    2.5468   49.2369 C.3     1  ZINC001078748831    0.0800
     13 H13        -0.5280    1.5500   49.5783 H       1  ZINC001078748831    0.1000
     14 N14         1.1656    2.6439   48.8528 N.3     1  ZINC001078748831   -0.6700
     15 C15         1.4981    1.6591   47.8147 C.3     1  ZINC001078748831    0.1400
     16 C16         1.8798    0.3539   48.4642 C.2     1  ZINC001078748831    0.0600
     17 N17         1.6181    0.0560   49.7066 N.2     1  ZINC001078748831   -0.5700
     18 S18         2.1696   -1.3741   49.9968 S.3     1  ZINC001078748831    0.6800
     19 N19         2.7609   -1.6905   48.5883 N.2     1  ZINC001078748831   -0.5700
     20 C20         2.5419   -0.6668   47.8105 C.2     1  ZINC001078748831    0.0500
     21 C21        -0.7132    3.6691   50.1707 C.3     1  ZINC001078748831   -0.1000
     22 C22         0.1372    4.9216   50.3855 C.3     1  ZINC001078748831   -0.1000
     23 C23        -0.4859    4.9981   51.7912 C.3     1  ZINC001078748831   -0.1400
     24 C24        -0.7252    3.4809   51.6881 C.3     1  ZINC001078748831   -0.1200
     25 N25        -5.3199    1.1524   50.7966 N.2     1  ZINC001078748831   -0.2500
     26 H26        -6.3680   -1.2843   52.0913 H       1  ZINC001078748831    0.1000
     27 H27        -7.9334   -0.6415   51.5394 H       1  ZINC001078748831    0.1100
     28 H28        -6.6676   -1.0413   50.3536 H       1  ZINC001078748831    0.1100
     29 H29        -6.2836    3.6707   52.5662 H       1  ZINC001078748831    0.2100
     30 H30        -3.0149    1.8775   49.6864 H       1  ZINC001078748831    0.4100
     31 H31        -1.7610    2.3783   47.6286 H       1  ZINC001078748831    0.0700
     32 H32        -0.7584    3.8914   47.5536 H       1  ZINC001078748831    0.1000
     33 H33         1.3949    3.5790   48.5508 H       1  ZINC001078748831    0.3500
     34 H34         0.6330    1.5048   47.1699 H       1  ZINC001078748831    0.1000
     35 H35         2.3340    2.0268   47.2195 H       1  ZINC001078748831    0.0600
     36 H36         2.8484   -0.6202   46.7759 H       1  ZINC001078748831    0.2000
     37 H37         1.2096    4.7264   50.3923 H       1  ZINC001078748831    0.1000
     38 H38        -0.1391    5.7542   49.7386 H       1  ZINC001078748831    0.0700
     39 H39         0.2256    5.2754   52.5690 H       1  ZINC001078748831    0.0700
     40 H40        -1.4049    5.5829   51.8296 H       1  ZINC001078748831    0.0800
     41 H41        -1.6905    3.1625   52.0818 H       1  ZINC001078748831    0.0700
     42 H42         0.1047    2.8806   52.0611 H       1  ZINC001078748831    0.0900
@<TRIPOS>BOND
     1     1     2    1
     2     1    26    1
     3     1    27    1
     4     1    28    1
     5     2    25    1
     6     2     3    1
     7     3     4    2
     8     4     5    1
     9     4    29    1
    10     5     6    1
    11     5    25    2
    12     6     7    2
    13     6     8   am
    14     8     9    1
    15     8    30    1
    16     9    10    1
    17     9    21    1
    18     9    11    1
    19    11    12    1
    20    11    31    1
    21    11    32    1
    22    12    13    1
    23    12    14    1
    24    12    21    1
    25    14    15    1
    26    14    33    1
    27    15    16    1
    28    15    34    1
    29    15    35    1
    30    16    20    1
    31    16    17    2
    32    17    18    1
    33    18    19    1
    34    19    20    2
    35    20    36    1
    36    21    24    1
    37    21    22    1
    38    22    23    1
    39    22    37    1
    40    22    38    1
    41    23    24    1
    42    23    39    1
    43    23    40    1
    44    24    41    1
    45    24    42    1
@<TRIPOS>SUBSTRUCTURE
     1 ZINC001078748831        1 TEMP              0 ****  ****    0 ROOT


##########                                Name:    ZINC000543625960
##########                DOCK_Rotatable_Bonds:                   8
##########                         Heavy_Atoms:                  29
##########                    Molecular_Weight:             416.544
##########                DOCK_Rotatable_Bonds:                   8
##########                       Formal_Charge:           -0.010001
##########                     HBond_Acceptors:                   8
##########                        HBond_Donors:                   2
##########                         Heavy_Atoms:                  29
##########                          Grid_Score:          -29.317900
##########                     Grid_vdw_energy:          -29.211464
##########                      Grid_es_energy:           -0.106435
##########           Internal_energy_repulsive:           18.008739

@<TRIPOS>MOLECULE
ZINC000543625960
 57 59 1 0 0
SMALL
USER_CHARGES


@<TRIPOS>ATOM
      1 C1        -10.6155    3.3371   59.0438 C.3     1  ZINC000543625960   -0.1500
      2 C2         -9.5446    2.7035   59.9340 C.3     1  ZINC000543625960   -0.1300
      3 C3         -9.8655    2.9922   61.4019 C.3     1  ZINC000543625960    0.1500
      4 H4        -10.8891    2.6858   61.6172 H       1  ZINC000543625960    0.0800
      5 C5         -9.7143    4.4906   61.6719 C.3     1  ZINC000543625960   -0.1700
      6 N6         -8.9417    2.2459   62.2597 N.am    1  ZINC000543625960   -1.1100
      7 S7         -9.4567    0.8783   63.0386 S.o2    1  ZINC000543625960    2.7000
      8 O8         -8.3088    0.3112   63.6550 O.2     1  ZINC000543625960   -0.9600
      9 O9        -10.6256    1.2432   63.7595 O.2     1  ZINC000543625960   -0.9500
     10 C10        -9.9722   -0.2643   61.8003 C.ar    1  ZINC000543625960   -0.6600
     11 C11        -9.0709   -0.7048   60.8489 C.ar    1  ZINC000543625960   -0.0400
     12 C12        -9.4715   -1.6015   59.8752 C.ar    1  ZINC000543625960   -0.1200
     13 C13       -10.7740   -2.0599   59.8506 C.ar    1  ZINC000543625960   -0.0600
     14 C14       -11.6817   -1.6197   60.8051 C.ar    1  ZINC000543625960    0.1500
     15 N15       -13.0024   -2.0823   60.7829 N.am    1  ZINC000543625960   -0.6800
     16 C16       -13.7269   -1.9978   59.6496 C.2     1  ZINC000543625960    0.7200
     17 O17       -13.2332   -1.5197   58.6466 O.2     1  ZINC000543625960   -0.5600
     18 N18       -14.9988   -2.4433   59.6281 N.am    1  ZINC000543625960   -0.6300
     19 C19       -15.7185   -3.0426   60.7667 C.3     1  ZINC000543625960    0.0900
     20 C20       -17.2177   -2.8056   60.4570 C.3     1  ZINC000543625960   -0.1000
     21 H21       -17.8418   -3.5460   60.9575 H       1  ZINC000543625960    0.1000
     22 C22       -17.6396   -1.3863   60.8426 C.3     1  ZINC000543625960   -0.1500
     23 C23       -17.2522   -2.9981   58.9179 C.3     1  ZINC000543625960   -0.1200
     24 C24       -15.9001   -2.4063   58.4672 C.3     1  ZINC000543625960    0.2000
     25 H25       -16.0387   -1.3784   58.1319 H       1  ZINC000543625960    0.0900
     26 C26       -15.3243   -3.2366   57.3492 C.ar    1  ZINC000543625960   -0.1400
     27 C27       -15.1278   -4.5987   57.5158 C.ar    1  ZINC000543625960   -0.0600
     28 C28       -14.5958   -5.3228   56.4595 C.ar    1  ZINC000543625960   -0.1700
     29 C29       -14.2815   -4.6673   55.2844 C.ar    1  ZINC000543625960    0.1000
     30 N30       -14.4821   -3.3696   55.1614 N.ar    1  ZINC000543625960   -0.4800
     31 C31       -14.9908   -2.6505   56.1425 C.ar    1  ZINC000543625960    0.1200
     32 C32       -11.2750   -0.7234   61.7844 C.ar    1  ZINC000543625960   -0.0500
     33 H33       -10.3868    3.1315   57.9980 H       1  ZINC000543625960    0.0600
     34 H34       -11.5900    2.9167   59.2921 H       1  ZINC000543625960    0.0600
     35 H35       -10.6325    4.4148   59.2068 H       1  ZINC000543625960    0.0500
     36 H36        -9.5276    1.6258   59.7710 H       1  ZINC000543625960    0.0700
     37 H37        -8.5701    3.1239   59.6856 H       1  ZINC000543625960    0.0800
     38 H38       -10.4016    5.0459   61.0337 H       1  ZINC000543625960    0.0700
     39 H39        -9.9429    4.6963   62.7176 H       1  ZINC000543625960    0.0700
     40 H40        -8.6906    4.7971   61.4566 H       1  ZINC000543625960    0.0600
     41 H41        -8.0283    2.5528   62.3715 H       1  ZINC000543625960    0.4200
     42 H42        -8.0518   -0.3475   60.8658 H       1  ZINC000543625960    0.1400
     43 H43        -8.7652   -1.9435   59.1333 H       1  ZINC000543625960    0.1400
     44 H44       -11.0865   -2.7597   59.0896 H       1  ZINC000543625960    0.1400
     45 H45       -13.3962   -2.4637   61.5830 H       1  ZINC000543625960    0.4100
     46 H46       -15.5082   -4.1103   60.8288 H       1  ZINC000543625960    0.0700
     47 H47       -15.4398   -2.5454   61.6958 H       1  ZINC000543625960    0.0800
     48 H48       -17.0304   -0.6654   60.2974 H       1  ZINC000543625960    0.0600
     49 H49       -18.6899   -1.2385   60.5910 H       1  ZINC000543625960    0.0600
     50 H50       -17.4993   -1.2440   61.9141 H       1  ZINC000543625960    0.0600
     51 H51       -17.3185   -4.0558   58.6628 H       1  ZINC000543625960    0.0800
     52 H52       -18.0799   -2.4416   58.4780 H       1  ZINC000543625960    0.0900
     53 H53       -15.3826   -5.0843   58.4462 H       1  ZINC000543625960    0.1300
     54 H54       -14.4289   -6.3856   56.5543 H       1  ZINC000543625960    0.1400
     55 H55       -13.8665   -5.2241   54.4572 H       1  ZINC000543625960    0.1600
     56 H56       -15.1407   -1.5899   56.0047 H       1  ZINC000543625960    0.1400
     57 H57       -11.9785   -0.3792   62.5281 H       1  ZINC000543625960    0.1400
@<TRIPOS>BOND
     1     1     2    1
     2     1    33    1
     3     1    34    1
     4     1    35    1
     5     2     3    1
     6     2    36    1
     7     2    37    1
     8     3     4    1
     9     3     5    1
    10     3     6    1
    11     5    38    1
    12     5    39    1
    13     5    40    1
    14     6     7   am
    15     6    41    1
    16     7     8    2
    17     7     9    2
    18     7    10    1
    19    10    32   ar
    20    10    11   ar
    21    11    12   ar
    22    11    42    1
    23    12    13   ar
    24    12    43    1
    25    13    14   ar
    26    13    44    1
    27    14    15    1
    28    14    32   ar
    29    15    16   am
    30    15    45    1
    31    16    17    2
    32    16    18   am
    33    18    24    1
    34    18    19    1
    35    19    20    1
    36    19    46    1
    37    19    47    1
    38    20    21    1
    39    20    22    1
    40    20    23    1
    41    22    48    1
    42    22    49    1
    43    22    50    1
    44    23    24    1
    45    23    51    1
    46    23    52    1
    47    24    25    1
    48    24    26    1
    49    26    31   ar
    50    26    27   ar
    51    27    28   ar
    52    27    53    1
    53    28    29   ar
    54    28    54    1
    55    29    30   ar
    56    29    55    1
    57    30    31   ar
    58    31    56    1
    59    32    57    1
@<TRIPOS>SUBSTRUCTURE
     1 ZINC000543625960        1 TEMP              0 ****  ****    0 ROOT


##########                                Name:    ZINC000880838037
##########                DOCK_Rotatable_Bonds:                   9
##########                         Heavy_Atoms:                  24
##########                    Molecular_Weight:             365.477
##########                DOCK_Rotatable_Bonds:                   9
##########                       Formal_Charge:           0.0200001
##########                     HBond_Acceptors:                   8
##########                        HBond_Donors:                   3
##########                         Heavy_Atoms:                  24
##########                          Grid_Score:          -29.315453
##########                     Grid_vdw_energy:          -25.989399
##########                      Grid_es_energy:           -3.326053
##########           Internal_energy_repulsive:           11.058454

@<TRIPOS>MOLECULE
ZINC000880838037
 43 44 1 0 0
SMALL
USER_CHARGES


@<TRIPOS>ATOM
      1 C1         -1.4521    3.5143   54.1496 C.3     1  ZINC000880838037    0.0300
      2 O2         -0.6927    4.1315   55.1911 O.3     1  ZINC000880838037   -0.3100
      3 C3          0.1131    3.3235   55.9289 C.ar    1  ZINC000880838037    0.1400
      4 C4          1.3695    2.9751   55.4538 C.ar    1  ZINC000880838037   -0.2200
      5 C5          2.1902    2.1533   56.2031 C.ar    1  ZINC000880838037   -0.0700
      6 C6          1.7625    1.6758   57.4266 C.ar    1  ZINC000880838037   -0.1500
      7 C7          0.5055    2.0210   57.9070 C.ar    1  ZINC000880838037    0.1800
      8 N8          0.0722    1.5373   59.1464 N.am    1  ZINC000880838037   -0.6700
      9 C9          0.6449    1.9838   60.2818 C.2     1  ZINC000880838037    0.5200
     10 O10         1.5359    2.8050   60.2291 O.2     1  ZINC000880838037   -0.4900
     11 C11         0.1782    1.4629   61.6165 C.3     1  ZINC000880838037   -0.0600
     12 C12         0.4195   -0.0230   61.6881 C.2     1  ZINC000880838037    0.1000
     13 C13        -0.4950   -0.9200   61.3176 C.2     1  ZINC000880838037   -0.2600
     14 S14         0.1854   -2.5269   61.5588 S.3     1  ZINC000880838037    0.1300
     15 C15         1.6389   -1.8365   62.1366 C.2     1  ZINC000880838037    0.0100
     16 S16         3.0474   -2.7499   62.6719 S.3     1  ZINC000880838037    0.1000
     17 C17         2.4117   -4.4360   62.5019 C.3     1  ZINC000880838037   -0.1500
     18 H18         1.7916   -4.5021   61.6080 H       1  ZINC000880838037    0.1200
     19 C19         1.5736   -4.7915   63.7316 C.3     1  ZINC000880838037   -0.1500
     20 C20         3.5655   -5.3985   62.3852 C.2     1  ZINC000880838037    0.5400
     21 N21         4.0662   -5.7062   61.1723 N.am    1  ZINC000880838037   -0.8400
     22 O22         4.0434   -5.8961   63.3825 O.2     1  ZINC000880838037   -0.5200
     23 N23         1.5558   -0.5417   62.1178 N.2     1  ZINC000880838037   -0.4200
     24 C24        -0.3172    2.8512   57.1592 C.ar    1  ZINC000880838037   -0.1500
     25 C25        -1.6814    3.2278   57.6771 C.3     1  ZINC000880838037   -0.1000
     26 H26        -2.1093    2.7580   54.5786 H       1  ZINC000880838037    0.0600
     27 H27        -2.0509    4.2694   53.6401 H       1  ZINC000880838037    0.1000
     28 H28        -0.7752    3.0449   53.4357 H       1  ZINC000880838037    0.0600
     29 H29         1.7063    3.3463   54.4972 H       1  ZINC000880838037    0.1300
     30 H30         3.1676    1.8837   55.8311 H       1  ZINC000880838037    0.1300
     31 H31         2.4056    1.0335   58.0100 H       1  ZINC000880838037    0.1400
     32 H32        -0.6405    0.8806   59.1884 H       1  ZINC000880838037    0.4100
     33 H33         0.7311    1.9595   62.4139 H       1  ZINC000880838037    0.1200
     34 H34        -0.8867    1.6641   61.7330 H       1  ZINC000880838037    0.1200
     35 H35        -1.4812   -0.6997   60.9366 H       1  ZINC000880838037    0.1800
     36 H36         2.1937   -4.7254   64.6255 H       1  ZINC000880838037    0.0900
     37 H37         0.7390   -4.0954   63.8161 H       1  ZINC000880838037    0.0800
     38 H38         1.1907   -5.8069   63.6292 H       1  ZINC000880838037    0.0800
     39 H39         4.8081   -6.3266   61.0969 H       1  ZINC000880838037    0.4000
     40 H40         3.6847   -5.3072   60.3746 H       1  ZINC000880838037    0.4100
     41 H41        -1.6062    4.1397   58.2693 H       1  ZINC000880838037    0.0700
     42 H42        -2.3557    3.3945   56.8371 H       1  ZINC000880838037    0.0700
     43 H43        -2.0690    2.4213   58.2995 H       1  ZINC000880838037    0.0600
@<TRIPOS>BOND
     1     1     2    1
     2     1    26    1
     3     1    27    1
     4     1    28    1
     5     2     3    1
     6     3    24   ar
     7     3     4   ar
     8     4     5   ar
     9     4    29    1
    10     5     6   ar
    11     5    30    1
    12     6     7   ar
    13     6    31    1
    14     7     8    1
    15     7    24   ar
    16     8     9   am
    17     8    32    1
    18     9    10    2
    19     9    11    1
    20    11    12    1
    21    11    33    1
    22    11    34    1
    23    12    23    1
    24    12    13    2
    25    13    14    1
    26    13    35    1
    27    14    15    1
    28    15    16    1
    29    15    23    2
    30    16    17    1
    31    17    18    1
    32    17    19    1
    33    17    20    1
    34    19    36    1
    35    19    37    1
    36    19    38    1
    37    20    21   am
    38    20    22    2
    39    21    39    1
    40    21    40    1
    41    24    25    1
    42    25    41    1
    43    25    42    1
    44    25    43    1
@<TRIPOS>SUBSTRUCTURE
     1 ZINC000880838037        1 TEMP              0 ****  ****    0 ROOT


##########                                Name:    ZINC000156038173
##########                DOCK_Rotatable_Bonds:                  10
##########                         Heavy_Atoms:                  27
##########                    Molecular_Weight:             396.357
##########                DOCK_Rotatable_Bonds:                  10
##########                       Formal_Charge:         -0.00999981
##########                     HBond_Acceptors:                  10
##########                        HBond_Donors:                   1
##########                         Heavy_Atoms:                  27
##########                          Grid_Score:          -29.314344
##########                     Grid_vdw_energy:          -27.445786
##########                      Grid_es_energy:           -1.868559
##########           Internal_energy_repulsive:           42.161156

@<TRIPOS>MOLECULE
ZINC000156038173
 48 48 1 0 0
SMALL
USER_CHARGES


@<TRIPOS>ATOM
      1 C1         -3.8046    3.4578   52.0679 C.3     1  ZINC000156038173    0.0700
      2 N2         -3.9480    2.5360   50.9384 N.am    1  ZINC000156038173   -0.6300
      3 C3         -4.9436    1.4625   50.9909 C.3     1  ZINC000156038173    0.1500
      4 C4         -6.1473    1.8405   50.1255 C.3     1  ZINC000156038173   -0.1400
      5 C5         -7.0929    2.6975   50.9271 C.2     1  ZINC000156038173    0.4700
      6 O6         -6.9555    3.8978   50.9418 O.2     1  ZINC000156038173   -0.5000
      7 O7         -8.0879    2.1273   51.6247 O.3     1  ZINC000156038173   -0.3500
      8 C8         -8.9795    3.0162   52.3479 C.3     1  ZINC000156038173    0.1200
      9 C9         -8.1799    3.8077   53.3848 C.3     1  ZINC000156038173   -0.1800
     10 C10        -9.6406    3.9852   51.3657 C.3     1  ZINC000156038173   -0.1400
     11 C11       -10.0575    2.1925   53.0553 C.3     1  ZINC000156038173   -0.1800
     12 C12        -3.1641    2.6755   49.8510 C.2     1  ZINC000156038173    0.7100
     13 O13        -3.2842    1.9114   48.9129 O.2     1  ZINC000156038173   -0.5700
     14 N14        -2.2472    3.6621   49.8034 N.am    1  ZINC000156038173   -0.7400
     15 C15        -1.3963    3.8149   48.6207 C.3     1  ZINC000156038173    0.1700
     16 H16        -2.0014    3.7036   47.7209 H       1  ZINC000156038173    0.1500
     17 C17        -0.3204    2.7598   48.6361 C.ar    1  ZINC000156038173   -0.1300
     18 C18         0.3064    2.4294   49.8229 C.ar    1  ZINC000156038173   -0.0700
     19 C19         1.2937    1.4616   49.8387 C.ar    1  ZINC000156038173   -0.1000
     20 C20         1.6560    0.8225   48.6680 C.ar    1  ZINC000156038173   -0.1100
     21 C21         1.0302    1.1512   47.4780 C.ar    1  ZINC000156038173    0.0700
     22 F22         1.3837    0.5270   46.3332 F       1  ZINC000156038173   -0.1200
     23 C23         0.0361    2.1176   47.4630 C.ar    1  ZINC000156038173    0.1000
     24 F24        -0.5761    2.4401   46.3027 F       1  ZINC000156038173   -0.1200
     25 C25        -0.7506    5.2019   48.6326 C.3     1  ZINC000156038173    0.4500
     26 F26        -1.4529    6.0357   49.5095 F       1  ZINC000156038173   -0.1700
     27 F27         0.5785    5.0940   49.0557 F       1  ZINC000156038173   -0.1600
     28 F28        -0.7871    5.7444   47.3435 F       1  ZINC000156038173   -0.1700
     29 H29        -3.0719    3.0607   52.7703 H       1  ZINC000156038173    0.0600
     30 H30        -3.4697    4.4292   51.7040 H       1  ZINC000156038173    0.0700
     31 H31        -4.7657    3.5697   52.5699 H       1  ZINC000156038173    0.0800
     32 H32        -4.5022    0.5391   50.6159 H       1  ZINC000156038173    0.1000
     33 H33        -5.2680    1.3179   52.0214 H       1  ZINC000156038173    0.0900
     34 H34        -5.8065    2.3953   49.2514 H       1  ZINC000156038173    0.1100
     35 H35        -6.6618    0.9352   49.8033 H       1  ZINC000156038173    0.1100
     36 H36        -7.4120    4.3945   52.8809 H       1  ZINC000156038173    0.0600
     37 H37        -8.8493    4.4751   53.9277 H       1  ZINC000156038173    0.0700
     38 H38        -7.7090    3.1174   54.0846 H       1  ZINC000156038173    0.0800
     39 H39       -10.2103    3.4214   50.6269 H       1  ZINC000156038173    0.0700
     40 H40       -10.3100    4.6526   51.9085 H       1  ZINC000156038173    0.0800
     41 H41        -8.8727    4.5720   50.8616 H       1  ZINC000156038173    0.0700
     42 H42        -9.5865    1.5023   53.7551 H       1  ZINC000156038173    0.0800
     43 H43       -10.7269    2.8599   53.5982 H       1  ZINC000156038173    0.0700
     44 H44       -10.6271    1.6287   52.3165 H       1  ZINC000156038173    0.0600
     45 H45        -2.1506    4.2711   50.5522 H       1  ZINC000156038173    0.4100
     46 H46         0.0249    2.9279   50.7386 H       1  ZINC000156038173    0.1400
     47 H47         1.7826    1.2050   50.7669 H       1  ZINC000156038173    0.1500
     48 H48         2.4276    0.0670   48.6817 H       1  ZINC000156038173    0.1500
@<TRIPOS>BOND
     1     1     2    1
     2     1    29    1
     3     1    30    1
     4     1    31    1
     5     2     3    1
     6     2    12   am
     7     3     4    1
     8     3    32    1
     9     3    33    1
    10     4     5    1
    11     4    34    1
    12     4    35    1
    13     5     6    2
    14     5     7    1
    15     7     8    1
    16     8     9    1
    17     8    10    1
    18     8    11    1
    19     9    36    1
    20     9    37    1
    21     9    38    1
    22    10    39    1
    23    10    40    1
    24    10    41    1
    25    11    42    1
    26    11    43    1
    27    11    44    1
    28    12    13    2
    29    12    14   am
    30    14    15    1
    31    14    45    1
    32    15    16    1
    33    15    17    1
    34    15    25    1
    35    17    23   ar
    36    17    18   ar
    37    18    19   ar
    38    18    46    1
    39    19    20   ar
    40    19    47    1
    41    20    21   ar
    42    20    48    1
    43    21    22    1
    44    21    23   ar
    45    23    24    1
    46    25    26    1
    47    25    27    1
    48    25    28    1
@<TRIPOS>SUBSTRUCTURE
     1 ZINC000156038173        1 TEMP              0 ****  ****    0 ROOT


##########                                Name:    ZINC001053792610
##########                DOCK_Rotatable_Bonds:                   5
##########                         Heavy_Atoms:                  25
##########                    Molecular_Weight:             347.374
##########                DOCK_Rotatable_Bonds:                   5
##########                       Formal_Charge:          -0.0400001
##########                     HBond_Acceptors:                   9
##########                        HBond_Donors:                   2
##########                         Heavy_Atoms:                  25
##########                          Grid_Score:          -29.306252
##########                     Grid_vdw_energy:          -29.623907
##########                      Grid_es_energy:            0.317656
##########           Internal_energy_repulsive:            7.728575

@<TRIPOS>MOLECULE
ZINC001053792610
 46 49 1 0 0
SMALL
USER_CHARGES


@<TRIPOS>ATOM
      1 C1         -6.2547    1.0562   50.9771 C.3     1  ZINC001053792610   -0.1000
      2 C2         -5.0386    1.8831   50.6474 C.ar    1  ZINC001053792610    0.0800
      3 C3         -4.3342    2.5111   51.6589 C.ar    1  ZINC001053792610    0.0600
      4 N4         -3.2679    3.2363   51.3698 N.ar    1  ZINC001053792610   -0.4200
      5 C5         -2.8746    3.3615   50.1147 C.ar    1  ZINC001053792610    0.0800
      6 C6         -1.6584    4.1880   49.7850 C.3     1  ZINC001053792610    0.0700
      7 N7         -1.1584    3.8148   48.4551 N.3     1  ZINC001053792610   -0.4500
      8 C8         -0.1344    2.7560   48.5528 C.3     1  ZINC001053792610   -0.0100
      9 C9          0.6624    3.5128   47.4921 C.3     1  ZINC001053792610    0.0800
     10 C10        -0.0913    4.7344   48.0138 C.3     1  ZINC001053792610   -0.0100
     11 C11         2.1833    3.5388   47.7109 C.3     1  ZINC001053792610   -0.1500
     12 C12         2.6924    2.6472   46.5434 C.3     1  ZINC001053792610    0.1100
     13 H13         3.6968    2.9386   46.2361 H       1  ZINC001053792610    0.1200
     14 N14         2.6456    1.2281   46.9041 N.am    1  ZINC001053792610   -0.7100
     15 C15         3.7130    0.6445   47.4842 C.2     1  ZINC001053792610    0.5000
     16 O16         4.7120    1.2946   47.7088 O.2     1  ZINC001053792610   -0.5100
     17 C17         3.6653   -0.8157   47.8536 C.3     1  ZINC001053792610    0.0800
     18 H18         3.9048   -1.4361   46.9900 H       1  ZINC001053792610    0.1300
     19 C19         4.6316   -1.1115   49.0170 C.3     1  ZINC001053792610    0.0500
     20 O20         3.7632   -1.5948   50.0825 O.3     1  ZINC001053792610   -0.3200
     21 C21         2.4948   -1.5976   49.6574 C.2     1  ZINC001053792610    0.6500
     22 O22         1.5638   -1.9559   50.3511 O.2     1  ZINC001053792610   -0.5100
     23 N23         2.3435   -1.1693   48.3933 N.am    1  ZINC001053792610   -0.7100
     24 C24         1.6534    2.9787   45.4417 C.3     1  ZINC001053792610    0.0400
     25 O25         0.4064    3.1495   46.1391 O.3     1  ZINC001053792610   -0.3300
     26 C26        -3.5793    2.7333   49.1028 C.ar    1  ZINC001053792610    0.0600
     27 N27        -4.6422    2.0038   49.3925 N.ar    1  ZINC001053792610   -0.4400
     28 H28        -5.9533    0.0255   51.1644 H       1  ZINC001053792610    0.0800
     29 H29        -6.7388    1.4604   51.8661 H       1  ZINC001053792610    0.0800
     30 H30        -6.9514    1.0844   50.1393 H       1  ZINC001053792610    0.0800
     31 H31        -4.6559    2.4090   52.6848 H       1  ZINC001053792610    0.1700
     32 H32        -1.9252    5.2449   49.7895 H       1  ZINC001053792610    0.1000
     33 H33        -0.8828    4.0061   50.5289 H       1  ZINC001053792610    0.0600
     34 H34         0.3603    2.7179   49.5233 H       1  ZINC001053792610    0.0800
     35 H35        -0.4853    1.7797   48.2186 H       1  ZINC001053792610    0.0900
     36 H36        -0.4060    5.4199   47.2269 H       1  ZINC001053792610    0.1000
     37 H37         0.4153    5.2392   48.8364 H       1  ZINC001053792610    0.0800
     38 H38         2.5718    4.5535   47.6240 H       1  ZINC001053792610    0.1000
     39 H39         2.4453    3.1043   48.6756 H       1  ZINC001053792610    0.1000
     40 H40         1.8462    0.7085   46.7256 H       1  ZINC001053792610    0.4000
     41 H41         5.3498   -1.8800   48.7312 H       1  ZINC001053792610    0.1200
     42 H42         5.1466   -0.2021   49.3266 H       1  ZINC001053792610    0.1100
     43 H43         1.5009   -1.1023   47.9174 H       1  ZINC001053792610    0.4400
     44 H44         1.9283    3.8995   44.9273 H       1  ZINC001053792610    0.0800
     45 H45         1.5797    2.1553   44.7313 H       1  ZINC001053792610    0.0900
     46 H46        -3.2579    2.8356   48.0768 H       1  ZINC001053792610    0.1600
@<TRIPOS>BOND
     1     1     2    1
     2     1    28    1
     3     1    29    1
     4     1    30    1
     5     2    27   ar
     6     2     3   ar
     7     3     4   ar
     8     3    31    1
     9     4     5   ar
    10     5     6    1
    11     5    26   ar
    12     6     7    1
    13     6    32    1
    14     6    33    1
    15     7    10    1
    16     7     8    1
    17     8     9    1
    18     8    34    1
    19     8    35    1
    20     9    25    1
    21     9    10    1
    22     9    11    1
    23    10    36    1
    24    10    37    1
    25    11    12    1
    26    11    38    1
    27    11    39    1
    28    12    13    1
    29    12    14    1
    30    12    24    1
    31    14    15   am
    32    14    40    1
    33    15    16    2
    34    15    17    1
    35    17    18    1
    36    17    23    1
    37    17    19    1
    38    19    20    1
    39    19    41    1
    40    19    42    1
    41    20    21    1
    42    21    22    2
    43    21    23   am
    44    23    43    1
    45    24    25    1
    46    24    44    1
    47    24    45    1
    48    26    27   ar
    49    26    46    1
@<TRIPOS>SUBSTRUCTURE
     1 ZINC001053792610        1 TEMP              0 ****  ****    0 ROOT


##########                                Name:    ZINC000463741321
##########                DOCK_Rotatable_Bonds:                   7
##########                         Heavy_Atoms:                  26
##########                    Molecular_Weight:             354.467
##########                DOCK_Rotatable_Bonds:                   7
##########                       Formal_Charge:         -6.4075e-07
##########                     HBond_Acceptors:                   4
##########                        HBond_Donors:                   1
##########                         Heavy_Atoms:                  26
##########                          Grid_Score:          -29.298887
##########                     Grid_vdw_energy:          -28.345026
##########                      Grid_es_energy:           -0.953862
##########           Internal_energy_repulsive:           11.598091

@<TRIPOS>MOLECULE
ZINC000463741321
 53 55 1 0 0
SMALL
USER_CHARGES


@<TRIPOS>ATOM
      1 C1         -4.3540    4.5629   51.4969 C.3     1  ZINC000463741321   -0.1500
      2 C2         -2.8526    4.3705   51.7202 C.3     1  ZINC000463741321   -0.1100
      3 H3         -2.3429    5.3274   51.6069 H       1  ZINC000463741321    0.1000
      4 C4         -2.6120    3.8283   53.1305 C.3     1  ZINC000463741321   -0.0900
      5 C5         -1.4533    4.5888   53.7786 C.3     1  ZINC000463741321   -0.0800
      6 C6         -0.8705    3.7606   54.8944 C.ar    1  ZINC000463741321   -0.1200
      7 C7         -1.6853    3.2983   55.9102 C.ar    1  ZINC000463741321   -0.0900
      8 C8         -1.1508    2.5383   56.9342 C.ar    1  ZINC000463741321   -0.1300
      9 C9          0.1989    2.2406   56.9433 C.ar    1  ZINC000463741321   -0.1000
     10 C10         1.0159    2.7022   55.9286 C.ar    1  ZINC000463741321   -0.1500
     11 C11         0.4807    3.4576   54.8993 C.ar    1  ZINC000463741321    0.1000
     12 F12         1.2784    3.9095   53.9069 F       1  ZINC000463741321   -0.1400
     13 C13        -2.3153    3.3924   50.7074 C.2     1  ZINC000463741321    0.5200
     14 O14        -3.0615    2.5957   50.1786 O.2     1  ZINC000463741321   -0.5300
     15 N15        -1.0057    3.4029   50.3891 N.am    1  ZINC000463741321   -0.7300
     16 C16        -0.4832    2.4508   49.4058 C.3     1  ZINC000463741321    0.1500
     17 H17        -1.2322    1.6841   49.2081 H       1  ZINC000463741321    0.1000
     18 C18        -0.1516    3.1888   48.1059 C.3     1  ZINC000463741321   -0.1300
     19 C19         0.4496    2.1982   47.1050 C.3     1  ZINC000463741321   -0.1200
     20 C20         1.6929    1.5510   47.7193 C.3     1  ZINC000463741321    0.0600
     21 N21         1.3229    0.8574   48.9597 N.3     1  ZINC000463741321   -0.4800
     22 C22         2.4072    0.1453   49.4774 C.ar    1  ZINC000463741321    0.1100
     23 C23         3.6543    0.7495   49.5747 C.ar    1  ZINC000463741321   -0.1700
     24 C24         4.7242    0.0427   50.0876 C.ar    1  ZINC000463741321   -0.0900
     25 C25         4.5552   -1.2652   50.5036 C.ar    1  ZINC000463741321   -0.1500
     26 C26         3.3152   -1.8697   50.4082 C.ar    1  ZINC000463741321   -0.0900
     27 C27         2.2397   -1.1669   49.9015 C.ar    1  ZINC000463741321   -0.1400
     28 C28         0.7866    1.7956   49.9539 C.3     1  ZINC000463741321    0.0500
     29 H29        -4.8636    3.6060   51.6101 H       1  ZINC000463741321    0.0600
     30 H30        -4.7425    5.2704   52.2293 H       1  ZINC000463741321    0.0700
     31 H31        -4.5253    4.9492   50.4922 H       1  ZINC000463741321    0.0600
     32 H32        -3.5133    3.9603   53.7291 H       1  ZINC000463741321    0.0700
     33 H33        -2.3649    2.7681   53.0748 H       1  ZINC000463741321    0.0700
     34 H34        -0.6842    4.7845   53.0314 H       1  ZINC000463741321    0.0800
     35 H35        -1.8186    5.5340   54.1801 H       1  ZINC000463741321    0.0800
     36 H36        -2.7398    3.5309   55.9044 H       1  ZINC000463741321    0.1300
     37 H37        -1.7884    2.1775   57.7277 H       1  ZINC000463741321    0.1300
     38 H38         0.6154    1.6471   57.7440 H       1  ZINC000463741321    0.1300
     39 H39         2.0707    2.4700   55.9363 H       1  ZINC000463741321    0.1400
     40 H40        -0.4092    4.0408   50.8111 H       1  ZINC000463741321    0.4000
     41 H41        -1.0618    3.6202   47.6895 H       1  ZINC000463741321    0.0700
     42 H42         0.5679    3.9817   48.3105 H       1  ZINC000463741321    0.0600
     43 H43        -0.2842    1.4269   46.8709 H       1  ZINC000463741321    0.0800
     44 H44         0.7273    2.7261   46.1926 H       1  ZINC000463741321    0.0800
     45 H45         2.1151    0.8345   47.0147 H       1  ZINC000463741321    0.0900
     46 H46         2.4317    2.3212   47.9404 H       1  ZINC000463741321    0.0500
     47 H47         3.7870    1.7707   49.2493 H       1  ZINC000463741321    0.1200
     48 H48         5.6939    0.5119   50.1635 H       1  ZINC000463741321    0.1200
     49 H49         5.3938   -1.8159   50.9037 H       1  ZINC000463741321    0.1200
     50 H50         3.1866   -2.8915   50.7340 H       1  ZINC000463741321    0.1200
     51 H51         1.2714   -1.6395   49.8275 H       1  ZINC000463741321    0.1300
     52 H52         1.5293    2.5650   50.1649 H       1  ZINC000463741321    0.0500
     53 H53         0.5511    1.2567   50.8718 H       1  ZINC000463741321    0.0900
@<TRIPOS>BOND
     1     1     2    1
     2     1    29    1
     3     1    30    1
     4     1    31    1
     5     2     3    1
     6     2     4    1
     7     2    13    1
     8     4     5    1
     9     4    32    1
    10     4    33    1
    11     5     6    1
    12     5    34    1
    13     5    35    1
    14     6    11   ar
    15     6     7   ar
    16     7     8   ar
    17     7    36    1
    18     8     9   ar
    19     8    37    1
    20     9    10   ar
    21     9    38    1
    22    10    11   ar
    23    10    39    1
    24    11    12    1
    25    13    14    2
    26    13    15   am
    27    15    16    1
    28    15    40    1
    29    16    17    1
    30    16    28    1
    31    16    18    1
    32    18    19    1
    33    18    41    1
    34    18    42    1
    35    19    20    1
    36    19    43    1
    37    19    44    1
    38    20    21    1
    39    20    45    1
    40    20    46    1
    41    21    22    1
    42    21    28    1
    43    22    27   ar
    44    22    23   ar
    45    23    24   ar
    46    23    47    1
    47    24    25   ar
    48    24    48    1
    49    25    26   ar
    50    25    49    1
    51    26    27   ar
    52    26    50    1
    53    27    51    1
    54    28    52    1
    55    28    53    1
@<TRIPOS>SUBSTRUCTURE
     1 ZINC000463741321        1 TEMP              0 ****  ****    0 ROOT


##########                                Name:    ZINC000629379364
##########                DOCK_Rotatable_Bonds:                   5
##########                         Heavy_Atoms:                  23
##########                    Molecular_Weight:             386.261
##########                DOCK_Rotatable_Bonds:                   5
##########                       Formal_Charge:               -0.02
##########                     HBond_Acceptors:                   5
##########                        HBond_Donors:                   1
##########                         Heavy_Atoms:                  23
##########                          Grid_Score:          -29.295460
##########                     Grid_vdw_energy:          -23.336645
##########                      Grid_es_energy:           -5.958814
##########           Internal_energy_repulsive:           20.455233

@<TRIPOS>MOLECULE
ZINC000629379364
 44 46 1 0 0
SMALL
USER_CHARGES


@<TRIPOS>ATOM
      1 O1         -1.6034    6.6390   55.3546 O.co2   1  ZINC000629379364   -0.6800
      2 C2         -1.7100    5.6568   54.6403 C.2     1  ZINC000629379364    0.5000
      3 O3         -1.8587    5.7908   53.4375 O.co2   1  ZINC000629379364   -0.6900
      4 C4         -1.6518    4.2768   55.2431 C.3     1  ZINC000629379364   -0.1600
      5 H5         -1.8898    3.5296   54.4859 H       1  ZINC000629379364    0.0800
      6 C6         -2.6437    4.1726   56.4148 C.3     1  ZINC000629379364   -0.1300
      7 C7         -2.5060    2.8357   57.1370 C.3     1  ZINC000629379364   -0.0100
      8 N8         -1.1189    2.5906   57.5772 N.4     1  ZINC000629379364   -0.3700
      9 H9         -1.0612    1.7005   58.0488 H       1  ZINC000629379364    0.4200
     10 C10        -0.6854    3.6637   58.4819 C.3     1  ZINC000629379364   -0.0200
     11 C11        -0.6540    3.1381   59.9184 C.3     1  ZINC000629379364    0.0300
     12 O12         0.0855    1.9161   59.9624 O.3     1  ZINC000629379364   -0.3200
     13 C13         0.1633    1.2850   61.1634 C.ar    1  ZINC000629379364    0.1600
     14 C14        -0.3049    1.9115   62.3086 C.ar    1  ZINC000629379364   -0.2300
     15 C15        -0.2247    1.2670   63.5305 C.ar    1  ZINC000629379364    0.1500
     16 F16        -0.6806    1.8764   64.6468 F       1  ZINC000629379364   -0.1200
     17 C17         0.3223   -0.0026   63.6094 C.ar    1  ZINC000629379364   -0.1600
     18 C18         0.7900   -0.6281   62.4675 C.ar    1  ZINC000629379364   -0.0300
     19 Br19        1.5365   -2.3620   62.5786 Br      1  ZINC000629379364   -0.0100
     20 C20         0.7061    0.0106   61.2445 C.ar    1  ZINC000629379364   -0.1300
     21 C21        -0.2809    2.5755   56.3891 C.3     1  ZINC000629379364   -0.0100
     22 H22        -0.6893    1.8827   55.6533 H       1  ZINC000629379364    0.1400
     23 C23         1.2077    2.2882   56.6110 C.3     1  ZINC000629379364   -0.1300
     24 C24         1.8730    2.8981   55.3473 C.3     1  ZINC000629379364   -0.1200
     25 C25         0.8990    3.9805   54.8201 C.3     1  ZINC000629379364   -0.1100
     26 C26        -0.2673    4.0167   55.8115 C.3     1  ZINC000629379364   -0.0700
     27 H27        -0.0465    4.7138   56.6199 H       1  ZINC000629379364    0.1000
     28 H28        -2.4502    4.9811   57.1197 H       1  ZINC000629379364    0.0800
     29 H29        -3.6599    4.2688   56.0323 H       1  ZINC000629379364    0.1100
     30 H30        -3.1606    2.8338   58.0087 H       1  ZINC000629379364    0.1200
     31 H31        -2.8115    2.0350   56.4636 H       1  ZINC000629379364    0.1300
     32 H32         0.3114    3.9994   58.1959 H       1  ZINC000629379364    0.1400
     33 H33        -1.3830    4.4987   58.4157 H       1  ZINC000629379364    0.1700
     34 H34        -0.1768    3.8750   60.5645 H       1  ZINC000629379364    0.1100
     35 H35        -1.6727    2.9588   60.2621 H       1  ZINC000629379364    0.0900
     36 H36        -0.7315    2.9018   62.2467 H       1  ZINC000629379364    0.1500
     37 H37         0.3841   -0.5050   64.5634 H       1  ZINC000629379364    0.1500
     38 H38         1.0712   -0.4787   60.3535 H       1  ZINC000629379364    0.1500
     39 H39         1.5658    2.7847   57.5128 H       1  ZINC000629379364    0.0800
     40 H40         1.3897    1.2148   56.6623 H       1  ZINC000629379364    0.0900
     41 H41         2.8291    3.3511   55.6096 H       1  ZINC000629379364    0.0800
     42 H42         2.0189    2.1261   54.5919 H       1  ZINC000629379364    0.0800
     43 H43         1.3989    4.9481   54.7744 H       1  ZINC000629379364    0.0900
     44 H44         0.5228    3.7024   53.8356 H       1  ZINC000629379364    0.0800
@<TRIPOS>BOND
     1     1     2   ar
     2     2     3   ar
     3     2     4    1
     4     4     5    1
     5     4    26    1
     6     4     6    1
     7     6     7    1
     8     6    28    1
     9     6    29    1
    10     7     8    1
    11     7    30    1
    12     7    31    1
    13     8     9    1
    14     8    10    1
    15     8    21    1
    16    10    11    1
    17    10    32    1
    18    10    33    1
    19    11    12    1
    20    11    34    1
    21    11    35    1
    22    12    13    1
    23    13    20   ar
    24    13    14   ar
    25    14    15   ar
    26    14    36    1
    27    15    16    1
    28    15    17   ar
    29    17    18   ar
    30    17    37    1
    31    18    19    1
    32    18    20   ar
    33    20    38    1
    34    21    22    1
    35    21    26    1
    36    21    23    1
    37    23    24    1
    38    23    39    1
    39    23    40    1
    40    24    25    1
    41    24    41    1
    42    24    42    1
    43    25    26    1
    44    25    43    1
    45    25    44    1
    46    26    27    1
@<TRIPOS>SUBSTRUCTURE
     1 ZINC000629379364        1 TEMP              0 ****  ****    0 ROOT


##########                                Name:    ZINC000012979878
##########                DOCK_Rotatable_Bonds:                   7
##########                         Heavy_Atoms:                  26
##########                    Molecular_Weight:             388.874
##########                DOCK_Rotatable_Bonds:                   7
##########                       Formal_Charge:          -0.0100003
##########                     HBond_Acceptors:                   7
##########                        HBond_Donors:                   1
##########                         Heavy_Atoms:                  26
##########                          Grid_Score:          -29.277027
##########                     Grid_vdw_energy:          -28.735659
##########                      Grid_es_energy:           -0.541369
##########           Internal_energy_repulsive:           11.699554

@<TRIPOS>MOLECULE
ZINC000012979878
 43 45 1 0 0
SMALL
USER_CHARGES


@<TRIPOS>ATOM
      1 C1         -9.7174    2.8420   53.9993 C.3     1  <0>         0.0300
      2 O2         -9.8839    1.4782   53.6064 O.3     1  <0>        -0.3100
      3 C3         -8.8509    0.8972   52.9415 C.ar    1  <0>         0.1500
      4 C4         -8.9398   -0.4293   52.5435 C.ar    1  <0>        -0.2200
      5 C5         -7.8899   -1.0217   51.8675 C.ar    1  <0>        -0.0600
      6 C6         -6.7493   -0.2958   51.5855 C.ar    1  <0>        -0.1800
      7 C7         -6.6546    1.0328   51.9815 C.ar    1  <0>         0.1800
      8 N8         -5.4998    1.7678   51.6960 N.am    1  <0>        -0.6700
      9 C9         -5.2340    2.1397   50.4281 C.2     1  <0>         0.6000
     10 O10        -5.9990    1.8358   49.5318 O.2     1  <0>        -0.4900
     11 C11        -4.0229    2.9106   50.1286 C.2     1  <0>        -0.3000
     12 C12        -3.6260    4.0500   50.7493 C.2     1  <0>         0.1600
     13 C13        -4.4098    4.6895   51.8663 C.3     1  <0>        -0.0900
     14 N14        -2.5026    4.5453   50.2942 N.2     1  <0>        -0.4500
     15 C15        -1.9179    3.9076   49.3315 C.2     1  <0>         0.0600
     16 C16        -0.6233    4.3266   48.6839 C.3     1  <0>         0.1300
     17 O17        -0.2518    3.3639   47.6954 O.3     1  <0>        -0.3000
     18 C18         0.7769    2.5300   48.0020 C.ar    1  <0>         0.1300
     19 C19         0.6779    1.6764   49.0910 C.ar    1  <0>        -0.2000
     20 C20         1.7245    0.8297   49.4011 C.ar    1  <0>        -0.0700
     21 C21         2.8711    0.8330   48.6266 C.ar    1  <0>        -0.0700
     22 Cl22        4.1851   -0.2316   49.0186 Cl      1  <0>        -0.0700
     23 C23         2.9714    1.6834   47.5397 C.ar    1  <0>        -0.0700
     24 C24         1.9247    2.5275   47.2230 C.ar    1  <0>        -0.1300
     25 S25        -2.8185    2.5190   48.9035 S.3     1  <0>         0.2000
     26 C26        -7.7101    1.6308   52.6553 C.ar    1  <0>        -0.1500
     27 H27        -8.8572    2.9264   54.6634 H       1  <0>         0.0600
     28 H28        -9.5554    3.4578   53.1146 H       1  <0>         0.0600
     29 H29       -10.6129    3.1822   54.5196 H       1  <0>         0.1000
     30 H30        -9.8305   -0.9995   52.7627 H       1  <0>         0.1300
     31 H31        -7.9614   -2.0544   51.5597 H       1  <0>         0.1300
     32 H32        -5.9302   -0.7611   51.0572 H       1  <0>         0.1300
     33 H33        -4.8900    2.0099   52.4104 H       1  <0>         0.4100
     34 H34        -4.0743    4.2871   52.8222 H       1  <0>         0.0900
     35 H35        -4.2512    5.7678   51.8504 H       1  <0>         0.0800
     36 H36        -5.4704    4.4762   51.7344 H       1  <0>         0.1000
     37 H37        -0.7517    5.3007   48.2121 H       1  <0>         0.0900
     38 H38         0.1581    4.3898   49.4413 H       1  <0>         0.1000
     39 H39        -0.2165    1.6741   49.6963 H       1  <0>         0.1400
     40 H40         1.6478    0.1650   50.2488 H       1  <0>         0.1400
     41 H41         3.8670    1.6843   46.9361 H       1  <0>         0.1400
     42 H42         2.0034    3.1911   46.3746 H       1  <0>         0.1400
     43 H43        -7.6394    2.6634   52.9638 H       1  <0>         0.1400
@<TRIPOS>BOND
     1     1     2    1
     2     1    27    1
     3     1    28    1
     4     1    29    1
     5     2     3    1
     6     3    26   ar
     7     3     4   ar
     8     4     5   ar
     9     4    30    1
    10     5     6   ar
    11     5    31    1
    12     6     7   ar
    13     6    32    1
    14     7     8    1
    15     7    26   ar
    16     8     9   am
    17     8    33    1
    18     9    10    2
    19     9    11    1
    20    11    25    1
    21    11    12    2
    22    12    13    1
    23    12    14    1
    24    13    34    1
    25    13    35    1
    26    13    36    1
    27    14    15    2
    28    15    16    1
    29    15    25    1
    30    16    17    1
    31    16    37    1
    32    16    38    1
    33    17    18    1
    34    18    24   ar
    35    18    19   ar
    36    19    20   ar
    37    19    39    1
    38    20    21   ar
    39    20    40    1
    40    21    22    1
    41    21    23   ar
    42    23    24   ar
    43    23    41    1
    44    24    42    1
    45    26    43    1
@<TRIPOS>SUBSTRUCTURE
     1 <0>         1 TEMP              0 ****  ****    0 ROOT


##########                                Name:    ZINC000285228948
##########                DOCK_Rotatable_Bonds:                   8
##########                         Heavy_Atoms:                  23
##########                    Molecular_Weight:             339.822
##########                DOCK_Rotatable_Bonds:                   8
##########                       Formal_Charge:           0.0299997
##########                     HBond_Acceptors:                   7
##########                        HBond_Donors:                   3
##########                         Heavy_Atoms:                  23
##########                          Grid_Score:          -29.249130
##########                     Grid_vdw_energy:          -26.602972
##########                      Grid_es_energy:           -2.646159
##########           Internal_energy_repulsive:           22.471355

@<TRIPOS>MOLECULE
ZINC000285228948
 45 46 1 0 0
SMALL
USER_CHARGES


@<TRIPOS>ATOM
      1 C1          0.0536    4.2693   47.4781 C.3     1  <0>        -0.1600
      2 C2          0.0011    2.8944   48.1473 C.3     1  <0>         0.1800
      3 H3          0.1499    3.0071   49.2212 H       1  <0>         0.1100
      4 C4          1.0869    2.0174   47.5790 C.ar    1  <0>        -0.0900
      5 C5          1.5235    0.9125   48.2859 C.ar    1  <0>        -0.1000
      6 C6          2.5192    0.1078   47.7652 C.ar    1  <0>        -0.1100
      7 C7          3.0791    0.4082   46.5363 C.ar    1  <0>        -0.0300
      8 Cl8         4.3295   -0.6024   45.8813 Cl      1  <0>        -0.0700
      9 C9          2.6418    1.5141   45.8292 C.ar    1  <0>        -0.1100
     10 C10         1.6419    2.3148   46.3483 C.ar    1  <0>        -0.0900
     11 N11        -1.3047    2.2792   47.8971 N.am    1  <0>        -0.6100
     12 C12        -1.5185    1.4807   46.6876 C.3     1  <0>         0.0600
     13 C13        -2.3092    2.4477   48.7797 C.2     1  <0>         0.5200
     14 O14        -3.3908    1.9396   48.5718 O.2     1  <0>        -0.5200
     15 C15        -2.0888    3.2676   50.0248 C.3     1  <0>         0.0300
     16 N16        -3.3725    3.8132   50.4855 N.3     1  <0>        -0.4900
     17 C17        -3.2149    5.2087   50.9689 C.3     1  <0>         0.0400
     18 C18        -4.4618    5.4167   51.8647 C.3     1  <0>        -0.1400
     19 C19        -4.6270    4.0416   52.5517 C.3     1  <0>         0.1100
     20 O20        -4.0268    4.0597   53.8485 O.3     1  <0>        -0.5400
     21 C21        -6.0865    3.6814   52.6569 C.2     1  <0>         0.5000
     22 N22        -6.7057    3.7204   53.8533 N.am    1  <0>        -0.8500
     23 O23        -6.7039    3.3564   51.6648 O.2     1  <0>        -0.5200
     24 C24        -3.8927    3.0441   51.6368 C.3     1  <0>         0.0600
     25 H25         1.0252    4.7271   47.6642 H       1  <0>         0.0700
     26 H26        -0.0952    4.1567   46.4042 H       1  <0>         0.0600
     27 H27        -0.7317    4.9037   47.8891 H       1  <0>         0.0700
     28 H28         1.0866    0.6784   49.2455 H       1  <0>         0.1400
     29 H29         2.8605   -0.7551   48.3178 H       1  <0>         0.1300
     30 H30         3.0786    1.7493   44.8699 H       1  <0>         0.1400
     31 H31         1.3002    3.1779   45.7963 H       1  <0>         0.1300
     32 H32        -1.2306    0.4470   46.8791 H       1  <0>         0.0600
     33 H33        -2.5716    1.5188   46.4086 H       1  <0>         0.0800
     34 H34        -0.9127    1.8822   45.8754 H       1  <0>         0.0800
     35 H35        -1.6613    2.6367   50.8042 H       1  <0>         0.1100
     36 H36        -1.4041    4.0864   49.8041 H       1  <0>         0.0700
     37 H37        -2.3002    5.3128   51.5525 H       1  <0>         0.0400
     38 H38        -3.2207    5.9084   50.1330 H       1  <0>         0.1200
     39 H39        -4.2803    6.1975   52.6033 H       1  <0>         0.0900
     40 H40        -5.3368    5.6529   51.2592 H       1  <0>         0.0900
     41 H41        -4.2570    3.2988   54.3991 H       1  <0>         0.3800
     42 H42        -7.6448    3.4875   53.9213 H       1  <0>         0.4000
     43 H43        -6.2121    3.9815   54.6466 H       1  <0>         0.4100
     44 H44        -4.5867    2.2788   51.2891 H       1  <0>         0.1100
     45 H45        -3.0671    2.5820   52.1782 H       1  <0>         0.0700
@<TRIPOS>BOND
     1     1     2    1
     2     1    25    1
     3     1    26    1
     4     1    27    1
     5     2     3    1
     6     2     4    1
     7     2    11    1
     8     4    10   ar
     9     4     5   ar
    10     5     6   ar
    11     5    28    1
    12     6     7   ar
    13     6    29    1
    14     7     8    1
    15     7     9   ar
    16     9    10   ar
    17     9    30    1
    18    10    31    1
    19    11    12    1
    20    11    13   am
    21    12    32    1
    22    12    33    1
    23    12    34    1
    24    13    14    2
    25    13    15    1
    26    15    16    1
    27    15    35    1
    28    15    36    1
    29    16    24    1
    30    16    17    1
    31    17    18    1
    32    17    37    1
    33    17    38    1
    34    18    19    1
    35    18    39    1
    36    18    40    1
    37    19    20    1
    38    19    21    1
    39    19    24    1
    40    20    41    1
    41    21    22   am
    42    21    23    2
    43    22    42    1
    44    22    43    1
    45    24    44    1
    46    24    45    1
@<TRIPOS>SUBSTRUCTURE
     1 <0>         1 TEMP              0 ****  ****    0 ROOT


##########                                Name:    ZINC000991934963
##########                DOCK_Rotatable_Bonds:                   8
##########                         Heavy_Atoms:                  27
##########                    Molecular_Weight:             370.495
##########                DOCK_Rotatable_Bonds:                   8
##########                       Formal_Charge:          -0.0499997
##########                     HBond_Acceptors:                   6
##########                        HBond_Donors:                   1
##########                         Heavy_Atoms:                  27
##########                          Grid_Score:          -29.245367
##########                     Grid_vdw_energy:          -29.521078
##########                      Grid_es_energy:            0.275711
##########           Internal_energy_repulsive:           14.817196

@<TRIPOS>MOLECULE
ZINC000991934963
 57 61 1 0 0
SMALL
USER_CHARGES


@<TRIPOS>ATOM
      1 C1         -7.2819   -0.8205   51.8930 C.3     1  ZINC000991934963    0.0400
      2 O2         -6.2312   -0.3176   51.0653 O.3     1  ZINC000991934963   -0.2900
      3 C3         -5.7774    0.9294   51.3373 C.ar    1  ZINC000991934963    0.5000
      4 N4         -6.1719    1.5319   52.4472 N.ar    1  ZINC000991934963   -0.5700
      5 C5         -5.7480    2.7497   52.7435 C.ar    1  ZINC000991934963    0.1900
      6 C6         -4.8809    3.3931   51.8750 C.ar    1  ZINC000991934963   -0.2700
      7 C7         -4.4882    2.7323   50.7215 C.ar    1  ZINC000991934963    0.2200
      8 C8         -3.5466    3.3921   49.7473 C.3     1  ZINC000991934963    0.1000
      9 N9         -2.2009    2.8246   49.9062 N.3     1  ZINC000991934963   -0.4900
     10 C10        -1.6084    3.2104   51.2259 C.3     1  ZINC000991934963    0.0400
     11 C11        -0.2069    3.8261   50.9200 C.3     1  ZINC000991934963   -0.1400
     12 C12         0.1123    3.1863   49.5704 C.3     1  ZINC000991934963    0.1700
     13 N13         0.5413    1.7917   49.7025 N.am    1  ZINC000991934963   -0.7000
     14 C14         1.7679    1.5066   50.1826 C.2     1  ZINC000991934963    0.5200
     15 O15         2.5171    2.4046   50.5040 O.2     1  ZINC000991934963   -0.5300
     16 C16         2.2086    0.0721   50.3201 C.3     1  ZINC000991934963   -0.1100
     17 C17         2.4821   -0.5126   48.9329 C.3     1  ZINC000991934963   -0.1300
     18 H18         1.6802   -0.3903   48.2047 H       1  ZINC000991934963    0.1200
     19 C19         3.3150   -1.7939   48.8579 C.3     1  ZINC000991934963   -0.1700
     20 C20         3.9208   -0.4597   48.4150 C.3     1  ZINC000991934963   -0.1200
     21 H21         4.6726   -0.0086   49.0625 H       1  ZINC000991934963    0.1000
     22 C22         4.1245   -0.2397   46.9145 C.3     1  ZINC000991934963   -0.1200
     23 C23         3.2457    0.8080   46.2285 C.3     1  ZINC000991934963   -0.1800
     24 C24         4.7288    1.0942   46.4719 C.3     1  ZINC000991934963   -0.1800
     25 C25         0.9294    3.9607   48.5419 C.3     1  ZINC000991934963   -0.1200
     26 C26         0.3594    3.4277   47.1905 C.3     1  ZINC000991934963   -0.1200
     27 C27        -1.0902    2.9449   47.4996 C.3     1  ZINC000991934963   -0.1000
     28 C28        -1.3113    3.3382   48.9210 C.3     1  ZINC000991934963    0.0500
     29 H29        -1.4731    4.4161   48.9127 H       1  ZINC000991934963    0.0400
     30 N30        -4.9460    1.5131   50.4892 N.ar    1  ZINC000991934963   -0.5000
     31 H31        -8.1516   -0.1684   51.8126 H       1  ZINC000991934963    0.0600
     32 H32        -7.5505   -1.8259   51.5685 H       1  ZINC000991934963    0.1100
     33 H33        -6.9452   -0.8510   52.9293 H       1  ZINC000991934963    0.0600
     34 H34        -6.0739    3.2364   53.6509 H       1  ZINC000991934963    0.1700
     35 H35        -4.5193    4.3875   52.0917 H       1  ZINC000991934963    0.1500
     36 H36        -3.8964    3.2184   48.7296 H       1  ZINC000991934963    0.1000
     37 H37        -3.5142    4.4639   49.9424 H       1  ZINC000991934963    0.0600
     38 H38        -2.2414    3.9485   51.7184 H       1  ZINC000991934963    0.0600
     39 H39        -1.4994    2.3293   51.8585 H       1  ZINC000991934963    0.0800
     40 H40        -0.2658    4.9111   50.8350 H       1  ZINC000991934963    0.0800
     41 H41         0.5229    3.5330   51.6748 H       1  ZINC000991934963    0.0900
     42 H42        -0.0574    1.0735   49.4442 H       1  ZINC000991934963    0.4000
     43 H43         3.1182    0.0272   50.9190 H       1  ZINC000991934963    0.1000
     44 H44         1.4230   -0.5042   50.8087 H       1  ZINC000991934963    0.0900
     45 H45         3.6681   -2.2202   49.7968 H       1  ZINC000991934963    0.0900
     46 H46         3.0613   -2.5143   48.0802 H       1  ZINC000991934963    0.1000
     47 H47         4.3904   -1.1278   46.3411 H       1  ZINC000991934963    0.1000
     48 H48         2.9331    0.6093   45.2033 H       1  ZINC000991934963    0.0900
     49 H49         2.5224    1.3406   46.8460 H       1  ZINC000991934963    0.0900
     50 H50         4.9813    1.8152   47.2494 H       1  ZINC000991934963    0.0900
     51 H51         5.3919    1.0840   45.6068 H       1  ZINC000991934963    0.0900
     52 H52         0.7582    5.0328   48.6386 H       1  ZINC000991934963    0.0800
     53 H53         1.9901    3.7269   48.6340 H       1  ZINC000991934963    0.0800
     54 H54         0.3393    4.2271   46.4497 H       1  ZINC000991934963    0.0700
     55 H55         0.9638    2.5954   46.8298 H       1  ZINC000991934963    0.0700
     56 H56        -1.8064    3.4470   46.8491 H       1  ZINC000991934963    0.0700
     57 H57        -1.1642    1.8633   47.3871 H       1  ZINC000991934963    0.0700
@<TRIPOS>BOND
     1     1     2    1
     2     1    31    1
     3     1    32    1
     4     1    33    1
     5     2     3    1
     6     3    30   ar
     7     3     4   ar
     8     4     5   ar
     9     5     6   ar
    10     5    34    1
    11     6     7   ar
    12     6    35    1
    13     7     8    1
    14     7    30   ar
    15     8     9    1
    16     8    36    1
    17     8    37    1
    18     9    28    1
    19     9    10    1
    20    10    11    1
    21    10    38    1
    22    10    39    1
    23    11    12    1
    24    11    40    1
    25    11    41    1
    26    12    28    1
    27    12    13    1
    28    12    25    1
    29    13    14   am
    30    13    42    1
    31    14    15    2
    32    14    16    1
    33    16    17    1
    34    16    43    1
    35    16    44    1
    36    17    18    1
    37    17    20    1
    38    17    19    1
    39    19    20    1
    40    19    45    1
    41    19    46    1
    42    20    21    1
    43    20    22    1
    44    22    24    1
    45    22    23    1
    46    22    47    1
    47    23    24    1
    48    23    48    1
    49    23    49    1
    50    24    50    1
    51    24    51    1
    52    25    26    1
    53    25    52    1
    54    25    53    1
    55    26    27    1
    56    26    54    1
    57    26    55    1
    58    27    28    1
    59    27    56    1
    60    27    57    1
    61    28    29    1
@<TRIPOS>SUBSTRUCTURE
     1 ZINC000991934963        1 TEMP              0 ****  ****    0 ROOT


##########                                Name:    ZINC001344051361
##########                DOCK_Rotatable_Bonds:                   8
##########                         Heavy_Atoms:                  28
##########                    Molecular_Weight:             379.456
##########                DOCK_Rotatable_Bonds:                   8
##########                       Formal_Charge:          -0.0100006
##########                     HBond_Acceptors:                   5
##########                        HBond_Donors:                   0
##########                         Heavy_Atoms:                  28
##########                          Grid_Score:          -29.236950
##########                     Grid_vdw_energy:          -28.574240
##########                      Grid_es_energy:           -0.662711
##########           Internal_energy_repulsive:           20.529860

@<TRIPOS>MOLECULE
ZINC001344051361
 53 56 1 0 0
SMALL
USER_CHARGES


@<TRIPOS>ATOM
      1 O1          1.6681    4.0645   48.9101 O.2     1  ZINC001344051361   -0.4800
      2 C2          0.9674    3.1018   48.7050 C.2     1  ZINC001344051361    0.4800
      3 O3         -0.0717    2.8432   49.5144 O.3     1  ZINC001344051361   -0.3500
      4 C4         -0.3870    3.8406   50.5214 C.3     1  ZINC001344051361    0.0700
      5 C5         -1.7282    3.5000   51.1742 C.3     1  ZINC001344051361   -0.1000
      6 H6         -1.7074    2.4709   51.5327 H       1  ZINC001344051361    0.0900
      7 C7         -1.9784    4.4459   52.3509 C.3     1  ZINC001344051361   -0.1200
      8 C8         -3.3041    4.0850   53.0248 C.3     1  ZINC001344051361   -0.1300
      9 C9         -4.4465    4.2530   52.0181 C.3     1  ZINC001344051361    0.0800
     10 N10        -4.1422    3.4581   50.8205 N.am    1  ZINC001344051361   -0.6100
     11 C11        -5.0294    2.5596   50.3491 C.2     1  ZINC001344051361    0.5600
     12 O12        -4.7657    1.9081   49.3573 O.2     1  ZINC001344051361   -0.5300
     13 C13        -6.3231    2.3665   51.0381 C.ar    1  ZINC001344051361   -0.1300
     14 C14        -6.6068    1.1546   51.6696 C.ar    1  ZINC001344051361   -0.1000
     15 C15        -7.8158    0.9811   52.3112 C.ar    1  ZINC001344051361   -0.1300
     16 C16        -8.7461    2.0050   52.3291 C.ar    1  ZINC001344051361   -0.0900
     17 C17        -8.4713    3.2087   51.7047 C.ar    1  ZINC001344051361   -0.1300
     18 C18        -7.2636    3.3974   51.0650 C.ar    1  ZINC001344051361   -0.0600
     19 C19        -2.8526    3.6607   50.1462 C.3     1  ZINC001344051361    0.1200
     20 C20         1.2563    2.1949   47.5366 C.3     1  ZINC001344051361    0.0200
     21 O21         1.1591    0.7946   47.8045 O.3     1  ZINC001344051361   -0.2500
     22 C22         2.1072    0.2540   48.6142 C.ar    1  ZINC001344051361    0.1200
     23 C23         2.0397   -1.0867   48.9644 C.ar    1  ZINC001344051361   -0.2000
     24 C24         3.0051   -1.6340   49.7872 C.ar    1  ZINC001344051361   -0.0800
     25 C25         4.0378   -0.8465   50.2619 C.ar    1  ZINC001344051361   -0.1500
     26 C26         4.1071    0.4899   49.9146 C.ar    1  ZINC001344051361   -0.0800
     27 C27         3.1477    1.0405   49.0871 C.ar    1  ZINC001344051361   -0.1400
     28 C28         0.8393    2.6792   46.1464 C.3     1  ZINC001344051361   -0.1700
     29 C29         2.3190    2.6503   46.5346 C.3     1  ZINC001344051361   -0.1100
     30 H30         0.3947    3.8499   51.2809 H       1  ZINC001344051361    0.0800
     31 H31        -0.4500    4.8227   50.0528 H       1  ZINC001344051361    0.0800
     32 H32        -1.1667    4.3508   53.0722 H       1  ZINC001344051361    0.0700
     33 H33        -2.0231    5.4728   51.9883 H       1  ZINC001344051361    0.0700
     34 H34        -3.2691    3.0502   53.3659 H       1  ZINC001344051361    0.0700
     35 H35        -3.4703    4.7439   53.8770 H       1  ZINC001344051361    0.0800
     36 H36        -5.3788    3.9034   52.4616 H       1  ZINC001344051361    0.1100
     37 H37        -4.5409    5.3040   51.7448 H       1  ZINC001344051361    0.0700
     38 H38        -5.8818    0.3543   51.6556 H       1  ZINC001344051361    0.1400
     39 H39        -8.0367    0.0438   52.8002 H       1  ZINC001344051361    0.1300
     40 H40        -9.6912    1.8640   52.8325 H       1  ZINC001344051361    0.1300
     41 H41        -9.2019    4.0038   51.7221 H       1  ZINC001344051361    0.1300
     42 H42        -7.0502    4.3376   50.5782 H       1  ZINC001344051361    0.1300
     43 H43        -2.8166    4.6633   49.7201 H       1  ZINC001344051361    0.0700
     44 H44        -2.7338    2.9206   49.3548 H       1  ZINC001344051361    0.1000
     45 H45         1.2328   -1.7019   48.5944 H       1  ZINC001344051361    0.1300
     46 H46         2.9529   -2.6776   50.0602 H       1  ZINC001344051361    0.1300
     47 H47         4.7914   -1.2762   50.9053 H       1  ZINC001344051361    0.1300
     48 H48         4.9145    1.1030   50.2870 H       1  ZINC001344051361    0.1300
     49 H49         3.2022    2.0845   48.8161 H       1  ZINC001344051361    0.1300
     50 H50         0.4907    1.9297   45.4359 H       1  ZINC001344051361    0.1200
     51 H51         0.3561    3.6537   46.0769 H       1  ZINC001344051361    0.1200
     52 H52         2.8093    3.6059   46.7204 H       1  ZINC001344051361    0.1200
     53 H53         2.9438    1.8818   46.0795 H       1  ZINC001344051361    0.1200
@<TRIPOS>BOND
     1     1     2    2
     2     2     3    1
     3     2    20    1
     4     3     4    1
     5     4     5    1
     6     4    30    1
     7     4    31    1
     8     5     6    1
     9     5    19    1
    10     5     7    1
    11     7     8    1
    12     7    32    1
    13     7    33    1
    14     8     9    1
    15     8    34    1
    16     8    35    1
    17     9    10    1
    18     9    36    1
    19     9    37    1
    20    10    11   am
    21    10    19    1
    22    11    12    2
    23    11    13    1
    24    13    18   ar
    25    13    14   ar
    26    14    15   ar
    27    14    38    1
    28    15    16   ar
    29    15    39    1
    30    16    17   ar
    31    16    40    1
    32    17    18   ar
    33    17    41    1
    34    18    42    1
    35    19    43    1
    36    19    44    1
    37    20    29    1
    38    20    21    1
    39    20    28    1
    40    21    22    1
    41    22    27   ar
    42    22    23   ar
    43    23    24   ar
    44    23    45    1
    45    24    25   ar
    46    24    46    1
    47    25    26   ar
    48    25    47    1
    49    26    27   ar
    50    26    48    1
    51    27    49    1
    52    28    29    1
    53    28    50    1
    54    28    51    1
    55    29    52    1
    56    29    53    1
@<TRIPOS>SUBSTRUCTURE
     1 ZINC001344051361        1 TEMP              0 ****  ****    0 ROOT


##########                                Name:    ZINC000486710336
##########                DOCK_Rotatable_Bonds:                   6
##########                         Heavy_Atoms:                  31
##########                    Molecular_Weight:             420.555
##########                DOCK_Rotatable_Bonds:                   6
##########                       Formal_Charge:         1.49012e-07
##########                     HBond_Acceptors:                   6
##########                        HBond_Donors:                   1
##########                         Heavy_Atoms:                  31
##########                          Grid_Score:          -29.226290
##########                     Grid_vdw_energy:          -28.860746
##########                      Grid_es_energy:           -0.365542
##########           Internal_energy_repulsive:           52.389454

@<TRIPOS>MOLECULE
ZINC000486710336
 63 67 1 0 0
SMALL
USER_CHARGES


@<TRIPOS>ATOM
      1 C1         -9.7884    1.4801   58.8424 C.3     1  ZINC000486710336    0.1000
      2 N2         -9.6748    1.1257   60.2592 N.pl3   1  ZINC000486710336   -0.3900
      3 N3         -9.0498    1.8893   61.2534 N.2     1  ZINC000486710336   -0.2800
      4 C4         -9.1507    1.2500   62.3906 C.2     1  ZINC000486710336    0.1000
      5 C5         -8.6122    1.7212   63.7169 C.3     1  ZINC000486710336   -0.0100
      6 C6         -9.7436    2.3464   64.5701 C.3     1  ZINC000486710336   -0.1200
      7 C7         -9.2029    2.2007   66.0142 C.3     1  ZINC000486710336   -0.1200
      8 C8         -8.4982    0.8285   66.0177 C.3     1  ZINC000486710336   -0.1200
      9 C9         -8.1225    0.5236   64.5570 C.3     1  ZINC000486710336   -0.1100
     10 C10        -9.8420    0.0568   62.1674 C.2     1  ZINC000486710336   -0.2600
     11 C11       -10.1619    0.0006   60.8445 C.2     1  ZINC000486710336    0.3000
     12 N12       -10.8542   -1.0254   60.2076 N.am    1  ZINC000486710336   -0.6200
     13 C13       -12.1959   -0.9648   60.0956 C.2     1  ZINC000486710336    0.5100
     14 O14       -12.8009   -0.0162   60.5516 O.2     1  ZINC000486710336   -0.4800
     15 C15       -12.9383   -2.0645   59.4110 C.2     1  ZINC000486710336    0.5300
     16 O16       -13.8630   -2.6141   59.9730 O.2     1  ZINC000486710336   -0.5100
     17 N17       -12.5817   -2.4469   58.1688 N.am    1  ZINC000486710336   -0.5800
     18 C18       -11.4826   -1.8773   57.3685 C.3     1  ZINC000486710336    0.1000
     19 C19       -11.4835   -2.6084   56.0076 C.3     1  ZINC000486710336   -0.0600
     20 H20       -10.7728   -3.4349   56.0123 H       1  ZINC000486710336    0.1000
     21 C21       -11.1778   -1.6497   54.8857 C.ar    1  ZINC000486710336   -0.0700
     22 C22       -11.5167   -1.9761   53.5859 C.ar    1  ZINC000486710336   -0.1100
     23 C23       -11.2363   -1.0967   52.5569 C.ar    1  ZINC000486710336   -0.1200
     24 C24       -10.6173    0.1092   52.8277 C.ar    1  ZINC000486710336   -0.1200
     25 C25       -10.2791    0.4360   54.1276 C.ar    1  ZINC000486710336   -0.1200
     26 C26       -10.5635   -0.4414   55.1572 C.ar    1  ZINC000486710336   -0.1100
     27 C27       -12.9469   -3.1377   55.9049 C.3     1  ZINC000486710336   -0.0800
     28 H28       -13.0398   -3.9941   55.2371 H       1  ZINC000486710336    0.1100
     29 C29       -13.8092   -1.9546   55.4602 C.3     1  ZINC000486710336   -0.1100
     30 C30       -15.2868   -2.2350   55.7236 C.3     1  ZINC000486710336   -0.1200
     31 C31       -15.4902   -2.4178   57.2314 C.3     1  ZINC000486710336   -0.1100
     32 C32       -14.6968   -3.6447   57.6809 C.3     1  ZINC000486710336   -0.1400
     33 C33       -13.2141   -3.5062   57.3783 C.3     1  ZINC000486710336    0.1400
     34 H34       -12.7211   -4.4482   57.6185 H       1  ZINC000486710336    0.0800
     35 H35       -10.7029    2.0515   58.6830 H       1  ZINC000486710336    0.0800
     36 H36        -8.9283    2.0814   58.5481 H       1  ZINC000486710336    0.1000
     37 H37        -9.8188    0.5710   58.2418 H       1  ZINC000486710336    0.0800
     38 H38        -7.8044    2.4375   63.5668 H       1  ZINC000486710336    0.0900
     39 H39        -9.8846    3.3967   64.3146 H       1  ZINC000486710336    0.0700
     40 H40       -10.6726    1.7897   64.4475 H       1  ZINC000486710336    0.0800
     41 H41        -8.4912    2.9956   66.2372 H       1  ZINC000486710336    0.0700
     42 H42       -10.0236    2.2099   66.7316 H       1  ZINC000486710336    0.0700
     43 H43        -7.5995    0.8718   66.6331 H       1  ZINC000486710336    0.0600
     44 H44        -9.1743    0.0624   66.3971 H       1  ZINC000486710336    0.0600
     45 H45        -8.6165   -0.3906   64.2275 H       1  ZINC000486710336    0.0700
     46 H46        -7.0416    0.4188   64.4634 H       1  ZINC000486710336    0.0700
     47 H47       -10.0834   -0.6871   62.9122 H       1  ZINC000486710336    0.1700
     48 H48       -10.3710   -1.7839   59.8442 H       1  ZINC000486710336    0.4200
     49 H49       -11.6482   -0.8107   57.2167 H       1  ZINC000486710336    0.0900
     50 H50       -10.5317   -2.0391   57.8760 H       1  ZINC000486710336    0.0800
     51 H51       -12.0003   -2.9183   53.3745 H       1  ZINC000486710336    0.1200
     52 H52       -11.5006   -1.3521   51.5414 H       1  ZINC000486710336    0.1200
     53 H53       -10.3976    0.7960   52.0236 H       1  ZINC000486710336    0.1200
     54 H54        -9.7951    1.3781   54.3391 H       1  ZINC000486710336    0.1200
     55 H55       -10.2992   -0.1861   56.1727 H       1  ZINC000486710336    0.1200
     56 H56       -13.5089   -1.0639   56.0120 H       1  ZINC000486710336    0.0700
     57 H57       -13.6608   -1.7828   54.3941 H       1  ZINC000486710336    0.0700
     58 H58       -15.8866   -1.3953   55.3728 H       1  ZINC000486710336    0.0600
     59 H59       -15.5853   -3.1441   55.2015 H       1  ZINC000486710336    0.0600
     60 H60       -15.1311   -1.5347   57.7599 H       1  ZINC000486710336    0.0500
     61 H61       -16.5489   -2.5676   57.4434 H       1  ZINC000486710336    0.0600
     62 H62       -14.8286   -3.7817   58.7542 H       1  ZINC000486710336    0.1000
     63 H63       -15.0748   -4.5247   57.1605 H       1  ZINC000486710336    0.0700
@<TRIPOS>BOND
     1     1     2    1
     2     1    35    1
     3     1    36    1
     4     1    37    1
     5     2    11    1
     6     2     3    1
     7     3     4    2
     8     4     5    1
     9     4    10    1
    10     5     9    1
    11     5     6    1
    12     5    38    1
    13     6     7    1
    14     6    39    1
    15     6    40    1
    16     7     8    1
    17     7    41    1
    18     7    42    1
    19     8     9    1
    20     8    43    1
    21     8    44    1
    22     9    45    1
    23     9    46    1
    24    10    11    2
    25    10    47    1
    26    11    12    1
    27    12    13   am
    28    12    48    1
    29    13    14    2
    30    13    15    1
    31    15    16    2
    32    15    17   am
    33    17    33    1
    34    17    18    1
    35    18    19    1
    36    18    49    1
    37    18    50    1
    38    19    20    1
    39    19    21    1
    40    19    27    1
    41    21    26   ar
    42    21    22   ar
    43    22    23   ar
    44    22    51    1
    45    23    24   ar
    46    23    52    1
    47    24    25   ar
    48    24    53    1
    49    25    26   ar
    50    25    54    1
    51    26    55    1
    52    27    28    1
    53    27    33    1
    54    27    29    1
    55    29    30    1
    56    29    56    1
    57    29    57    1
    58    30    31    1
    59    30    58    1
    60    30    59    1
    61    31    32    1
    62    31    60    1
    63    31    61    1
    64    32    33    1
    65    32    62    1
    66    32    63    1
    67    33    34    1
@<TRIPOS>SUBSTRUCTURE
     1 ZINC000486710336        1 TEMP              0 ****  ****    0 ROOT


##########                                Name:    ZINC000763800048
##########                DOCK_Rotatable_Bonds:                   8
##########                         Heavy_Atoms:                  23
##########                    Molecular_Weight:             329.783
##########                DOCK_Rotatable_Bonds:                   8
##########                       Formal_Charge:           0.0199994
##########                     HBond_Acceptors:                   5
##########                        HBond_Donors:                   1
##########                         Heavy_Atoms:                  23
##########                          Grid_Score:          -29.211369
##########                     Grid_vdw_energy:          -27.482716
##########                      Grid_es_energy:           -1.728653
##########           Internal_energy_repulsive:            3.604117

@<TRIPOS>MOLECULE
ZINC000763800048
 39 40 1 0 0
SMALL
USER_CHARGES


@<TRIPOS>ATOM
      1 C1          2.3117   -1.8142   49.2028 C.3     1  ZINC000763800048    0.0400
      2 O2          2.0715   -0.5818   49.9320 O.3     1  ZINC000763800048   -0.3600
      3 C3          2.5986    0.5416   49.4203 C.2     1  ZINC000763800048    0.4600
      4 O4          3.2095    0.5024   48.3786 O.2     1  ZINC000763800048   -0.4900
      5 C5          2.4284    1.8518   50.1451 C.3     1  ZINC000763800048   -0.0700
      6 C6          1.2714    2.6101   49.5471 C.ar    1  ZINC000763800048   -0.0600
      7 C7          1.4871    3.4831   48.4967 C.ar    1  ZINC000763800048   -0.1200
      8 C8          0.4281    4.1810   47.9450 C.ar    1  ZINC000763800048   -0.1000
      9 C9         -0.8487    4.0075   48.4415 C.ar    1  ZINC000763800048   -0.1100
     10 C10        -1.0688    3.1308   49.4964 C.ar    1  ZINC000763800048    0.1500
     11 N11        -2.3604    2.9527   50.0014 N.am    1  ZINC000763800048   -0.6700
     12 C12        -3.2405    2.1738   49.3418 C.2     1  ZINC000763800048    0.5500
     13 O13        -2.9110    1.6254   48.3063 O.2     1  ZINC000763800048   -0.5200
     14 C14        -4.5923    1.9874   49.8704 C.2     1  ZINC000763800048   -0.2100
     15 C15        -4.7870    1.8773   51.2004 C.2     1  ZINC000763800048   -0.0100
     16 C16        -6.1465    1.6916   51.7320 C.ar    1  ZINC000763800048   -0.0800
     17 C17        -6.8044    0.4683   51.5673 C.ar    1  ZINC000763800048   -0.0900
     18 C18        -8.0778    0.3015   52.0678 C.ar    1  ZINC000763800048   -0.1100
     19 C19        -8.7063    1.3421   52.7324 C.ar    1  ZINC000763800048   -0.0200
     20 Cl20      -10.3103    1.1231   53.3589 Cl      1  ZINC000763800048   -0.0600
     21 C21        -8.0606    2.5565   52.8997 C.ar    1  ZINC000763800048   -0.1100
     22 C22        -6.7849    2.7356   52.4094 C.ar    1  ZINC000763800048   -0.0800
     23 C23        -0.0040    2.4279   50.0449 C.ar    1  ZINC000763800048   -0.1300
     24 H24         1.8322   -2.6435   49.7229 H       1  ZINC000763800048    0.1000
     25 H25         1.8985   -1.7283   48.1978 H       1  ZINC000763800048    0.0600
     26 H26         3.3845   -1.9963   49.1402 H       1  ZINC000763800048    0.0600
     27 H27         2.2309    1.6606   51.1999 H       1  ZINC000763800048    0.1200
     28 H28         3.3393    2.4423   50.0472 H       1  ZINC000763800048    0.1200
     29 H29         2.4846    3.6207   48.1066 H       1  ZINC000763800048    0.1200
     30 H30         0.6000    4.8627   47.1252 H       1  ZINC000763800048    0.1300
     31 H31        -1.6751    4.5530   48.0104 H       1  ZINC000763800048    0.1400
     32 H32        -2.6230    3.3897   50.8266 H       1  ZINC000763800048    0.4100
     33 H33        -5.4340    1.9380   49.1955 H       1  ZINC000763800048    0.1300
     34 H34        -3.9452    1.9254   51.8753 H       1  ZINC000763800048    0.1400
     35 H35        -6.3159   -0.3436   51.0488 H       1  ZINC000763800048    0.1400
     36 H36        -8.5869   -0.6426   51.9414 H       1  ZINC000763800048    0.1400
     37 H37        -8.5566    3.3633   53.4187 H       1  ZINC000763800048    0.1400
     38 H38        -6.2826    3.6827   52.5408 H       1  ZINC000763800048    0.1400
     39 H39        -0.1719    1.7453   50.8649 H       1  ZINC000763800048    0.1300
@<TRIPOS>BOND
     1     1     2    1
     2     1    24    1
     3     1    25    1
     4     1    26    1
     5     2     3    1
     6     3     4    2
     7     3     5    1
     8     5     6    1
     9     5    27    1
    10     5    28    1
    11     6    23   ar
    12     6     7   ar
    13     7     8   ar
    14     7    29    1
    15     8     9   ar
    16     8    30    1
    17     9    10   ar
    18     9    31    1
    19    10    11    1
    20    10    23   ar
    21    11    12   am
    22    11    32    1
    23    12    13    2
    24    12    14    1
    25    14    15    2
    26    14    33    1
    27    15    16    1
    28    15    34    1
    29    16    22   ar
    30    16    17   ar
    31    17    18   ar
    32    17    35    1
    33    18    19   ar
    34    18    36    1
    35    19    20    1
    36    19    21   ar
    37    21    22   ar
    38    21    37    1
    39    22    38    1
    40    23    39    1
@<TRIPOS>SUBSTRUCTURE
     1 ZINC000763800048        1 TEMP              0 ****  ****    0 ROOT


##########                                Name:    ZINC000129637895
##########                DOCK_Rotatable_Bonds:                   7
##########                         Heavy_Atoms:                  26
##########                    Molecular_Weight:             374.464
##########                DOCK_Rotatable_Bonds:                   7
##########                       Formal_Charge:        -5.51343e-07
##########                     HBond_Acceptors:                   8
##########                        HBond_Donors:                   1
##########                         Heavy_Atoms:                  26
##########                          Grid_Score:          -29.201324
##########                     Grid_vdw_energy:          -28.527151
##########                      Grid_es_energy:           -0.674174
##########           Internal_energy_repulsive:           21.619110

@<TRIPOS>MOLECULE
ZINC000129637895
 48 50 1 0 0
SMALL
USER_CHARGES


@<TRIPOS>ATOM
      1 C1         -9.0007   -0.6654   60.0020 C.3     1  ZINC000129637895   -0.1500
      2 C2         -9.7565   -0.2762   58.7299 C.3     1  ZINC000129637895   -0.0500
      3 C3        -10.2007   -1.5223   58.0084 C.2     1  ZINC000129637895    0.0300
      4 C4        -10.5135   -1.5359   56.7002 C.2     1  ZINC000129637895   -0.0200
      5 N5        -10.4778   -0.4423   55.8361 N.am    1  ZINC000129637895   -0.5900
      6 C6        -11.3161   -0.3887   54.7821 C.2     1  ZINC000129637895    0.5000
      7 O7        -12.1032   -1.2921   54.5859 O.2     1  ZINC000129637895   -0.4800
      8 C8        -11.2766    0.7811   53.8560 C.2     1  ZINC000129637895    0.5200
      9 O9        -12.0911    1.6737   53.9707 O.2     1  ZINC000129637895   -0.5100
     10 N10       -10.3365    0.8464   52.8924 N.am    1  ZINC000129637895   -0.5800
     11 C11       -10.2760    1.9931   51.9734 C.3     1  ZINC000129637895    0.0800
     12 C12        -8.8429    2.5356   51.9655 C.3     1  ZINC000129637895    0.0400
     13 N13        -7.9107    1.4427   51.6575 N.3     1  ZINC000129637895   -0.4900
     14 C14        -6.6127    1.9271   51.4802 C.ar    1  ZINC000129637895    0.1500
     15 C15        -5.9380    2.5141   52.5434 C.ar    1  ZINC000129637895   -0.2100
     16 C16        -4.6539    2.9927   52.3678 C.ar    1  ZINC000129637895   -0.0500
     17 C17        -4.0378    2.8894   51.1354 C.ar    1  ZINC000129637895   -0.2300
     18 C18        -4.7070    2.3039   50.0695 C.ar    1  ZINC000129637895    0.1500
     19 O19        -4.0993    2.2027   48.8581 O.3     1  ZINC000129637895   -0.3200
     20 C20        -2.7877    2.7577   48.7420 C.3     1  ZINC000129637895    0.0300
     21 C21        -5.9929    1.8175   50.2428 C.ar    1  ZINC000129637895   -0.1700
     22 C22        -7.9475    0.4029   52.6944 C.3     1  ZINC000129637895    0.0400
     23 C23        -9.3402   -0.2241   52.7360 C.3     1  ZINC000129637895    0.1100
     24 S24       -10.9753   -3.1817   56.2725 S.3     1  ZINC000129637895    0.2400
     25 C25       -10.7046   -3.6868   57.8831 C.2     1  ZINC000129637895   -0.0300
     26 N26       -10.3106   -2.6927   58.6042 N.2     1  ZINC000129637895   -0.4500
     27 H27        -9.6562   -1.2466   60.6506 H       1  ZINC000129637895    0.0600
     28 H28        -8.1281   -1.2628   59.7379 H       1  ZINC000129637895    0.0500
     29 H29        -8.6793    0.2360   60.5239 H       1  ZINC000129637895    0.0700
     30 H30       -10.6290    0.3214   58.9941 H       1  ZINC000129637895    0.0900
     31 H31        -9.1010    0.3050   58.0813 H       1  ZINC000129637895    0.0700
     32 H32        -9.8499    0.2799   55.9936 H       1  ZINC000129637895    0.4300
     33 H33       -10.5515    1.6721   50.9688 H       1  ZINC000129637895    0.0900
     34 H34       -10.9601    2.7710   52.3127 H       1  ZINC000129637895    0.1400
     35 H35        -8.7530    3.3146   51.2084 H       1  ZINC000129637895    0.1000
     36 H36        -8.6057    2.9508   52.9450 H       1  ZINC000129637895    0.0500
     37 H37        -6.4176    2.5967   53.5075 H       1  ZINC000129637895    0.1300
     38 H38        -4.1309    3.4486   53.1954 H       1  ZINC000129637895    0.1300
     39 H39        -3.0342    3.2651   51.0011 H       1  ZINC000129637895    0.1300
     40 H40        -2.8235    3.8243   48.9635 H       1  ZINC000129637895    0.0600
     41 H41        -2.1199    2.2624   49.4469 H       1  ZINC000129637895    0.0600
     42 H42        -2.4191    2.6096   47.7269 H       1  ZINC000129637895    0.1000
     43 H43        -6.5150    1.3613   49.4147 H       1  ZINC000129637895    0.1300
     44 H44        -7.2082   -0.3648   52.4659 H       1  ZINC000129637895    0.1000
     45 H45        -7.7229    0.8477   53.6638 H       1  ZINC000129637895    0.0500
     46 H46        -9.4062   -0.9138   53.5774 H       1  ZINC000129637895    0.1100
     47 H47        -9.5291   -0.7587   51.8051 H       1  ZINC000129637895    0.0900
     48 H48       -10.8399   -4.6956   58.2443 H       1  ZINC000129637895    0.2000
@<TRIPOS>BOND
     1     1     2    1
     2     1    27    1
     3     1    28    1
     4     1    29    1
     5     2     3    1
     6     2    30    1
     7     2    31    1
     8     3    26    1
     9     3     4    2
    10     4     5    1
    11     4    24    1
    12     5     6   am
    13     5    32    1
    14     6     7    2
    15     6     8    1
    16     8     9    2
    17     8    10   am
    18    10    23    1
    19    10    11    1
    20    11    12    1
    21    11    33    1
    22    11    34    1
    23    12    13    1
    24    12    35    1
    25    12    36    1
    26    13    14    1
    27    13    22    1
    28    14    21   ar
    29    14    15   ar
    30    15    16   ar
    31    15    37    1
    32    16    17   ar
    33    16    38    1
    34    17    18   ar
    35    17    39    1
    36    18    19    1
    37    18    21   ar
    38    19    20    1
    39    20    40    1
    40    20    41    1
    41    20    42    1
    42    21    43    1
    43    22    23    1
    44    22    44    1
    45    22    45    1
    46    23    46    1
    47    23    47    1
    48    24    25    1
    49    25    26    2
    50    25    48    1
@<TRIPOS>SUBSTRUCTURE
     1 ZINC000129637895        1 TEMP              0 ****  ****    0 ROOT


##########                                Name:    ZINC000443394081
##########                DOCK_Rotatable_Bonds:                   8
##########                         Heavy_Atoms:                  27
##########                    Molecular_Weight:             389.878
##########                DOCK_Rotatable_Bonds:                   8
##########                       Formal_Charge:          -0.0300003
##########                     HBond_Acceptors:                   6
##########                        HBond_Donors:                   1
##########                         Heavy_Atoms:                  27
##########                          Grid_Score:          -29.198248
##########                     Grid_vdw_energy:          -29.807396
##########                      Grid_es_energy:            0.609148
##########           Internal_energy_repulsive:           30.970200

@<TRIPOS>MOLECULE
ZINC000443394081
 51 53 1 0 0
SMALL
USER_CHARGES


@<TRIPOS>ATOM
      1 C1         -6.5091   -1.8390   51.2762 C.3     1  ZINC000443394081    0.0200
      2 O2         -6.4320   -0.4300   51.0502 O.3     1  ZINC000443394081   -0.3000
      3 C3         -7.0808    0.3737   51.9348 C.ar    1  ZINC000443394081    0.1000
      4 C4         -8.3298    0.0172   52.4042 C.ar    1  ZINC000443394081   -0.1200
      5 C5         -8.9936    0.8453   53.3137 C.ar    1  ZINC000443394081   -0.1300
      6 C6        -10.3284    0.4688   53.8189 C.2     1  ZINC000443394081    0.5700
      7 O7        -10.4400   -0.4285   54.6317 O.2     1  ZINC000443394081   -0.4900
      8 N8        -11.4236    1.1198   53.3794 N.am    1  ZINC000443394081   -0.6100
      9 C9        -11.4329    2.2218   52.4001 C.3     1  ZINC000443394081    0.0900
     10 C10       -12.8536    2.1922   51.7833 C.3     1  ZINC000443394081   -0.1300
     11 C11       -13.7198    1.8158   53.0142 C.3     1  ZINC000443394081   -0.1000
     12 H12       -13.9464    2.6993   53.6111 H       1  ZINC000443394081    0.0900
     13 C13       -15.0079    1.1160   52.5760 C.3     1  ZINC000443394081   -0.1500
     14 C14       -12.8076    0.8443   53.7922 C.3     1  ZINC000443394081    0.1400
     15 H15       -12.9107    1.0166   54.8636 H       1  ZINC000443394081    0.0800
     16 C16       -13.1827   -0.6011   53.4593 C.3     1  ZINC000443394081    0.0600
     17 O17       -12.7430   -0.9147   52.1362 O.3     1  ZINC000443394081   -0.5400
     18 C18        -8.3910    2.0296   53.7438 C.ar    1  ZINC000443394081   -0.1000
     19 C19        -7.1445    2.3798   53.2711 C.ar    1  ZINC000443394081   -0.1800
     20 C20        -6.4827    1.5549   52.3724 C.ar    1  ZINC000443394081    0.1300
     21 O21        -5.2548    1.9042   51.9096 O.3     1  ZINC000443394081   -0.3000
     22 C22        -5.0992    3.2405   51.4276 C.3     1  ZINC000443394081    0.1000
     23 C23        -4.0018    3.2777   50.3955 C.ar    1  ZINC000443394081   -0.0800
     24 C24        -3.7807    2.1826   49.5820 C.ar    1  ZINC000443394081   -0.0800
     25 C25        -2.7738    2.2165   48.6351 C.ar    1  ZINC000443394081   -0.1100
     26 C26        -1.9875    3.3454   48.5017 C.ar    1  ZINC000443394081   -0.1000
     27 C27        -2.2077    4.4414   49.3149 C.ar    1  ZINC000443394081   -0.1100
     28 C28        -3.2189    4.4104   50.2582 C.ar    1  ZINC000443394081   -0.0300
     29 Cl29       -3.4961    5.7864   51.2797 Cl      1  ZINC000443394081   -0.0700
     30 H30        -5.9502   -2.3625   50.5006 H       1  ZINC000443394081    0.1000
     31 H31        -6.0839   -2.0741   52.2519 H       1  ZINC000443394081    0.0600
     32 H32        -7.5520   -2.1549   51.2486 H       1  ZINC000443394081    0.0600
     33 H33        -8.7926   -0.8991   52.0690 H       1  ZINC000443394081    0.1500
     34 H34       -11.2558    3.1744   52.8994 H       1  ZINC000443394081    0.0700
     35 H35       -10.6811    2.0509   51.6296 H       1  ZINC000443394081    0.0800
     36 H36       -13.1313    3.1721   51.3950 H       1  ZINC000443394081    0.0900
     37 H37       -12.9265    1.4309   51.0067 H       1  ZINC000443394081    0.0800
     38 H38       -14.7593    0.2203   52.0070 H       1  ZINC000443394081    0.0600
     39 H39       -15.5879    0.8380   53.4562 H       1  ZINC000443394081    0.0600
     40 H40       -15.5944    1.7912   51.9530 H       1  ZINC000443394081    0.0600
     41 H41       -12.7033   -1.2738   54.1704 H       1  ZINC000443394081    0.0600
     42 H42       -14.2645   -0.7189   53.5201 H       1  ZINC000443394081    0.0400
     43 H43       -12.9024   -1.8322   51.8759 H       1  ZINC000443394081    0.3700
     44 H44        -8.9019    2.6711   54.4465 H       1  ZINC000443394081    0.1400
     45 H45        -6.6798    3.2960   53.6043 H       1  ZINC000443394081    0.1400
     46 H46        -6.0335    3.5752   50.9767 H       1  ZINC000443394081    0.0800
     47 H47        -4.8402    3.8982   52.2573 H       1  ZINC000443394081    0.0800
     48 H48        -4.3943    1.3000   49.6862 H       1  ZINC000443394081    0.1400
     49 H49        -2.6014    1.3605   47.9996 H       1  ZINC000443394081    0.1300
     50 H50        -1.2006    3.3711   47.7624 H       1  ZINC000443394081    0.1300
     51 H51        -1.5932    5.3235   49.2106 H       1  ZINC000443394081    0.1400
@<TRIPOS>BOND
     1     1     2    1
     2     1    30    1
     3     1    31    1
     4     1    32    1
     5     2     3    1
     6     3    20   ar
     7     3     4   ar
     8     4     5   ar
     9     4    33    1
    10     5     6    1
    11     5    18   ar
    12     6     7    2
    13     6     8   am
    14     8    14    1
    15     8     9    1
    16     9    10    1
    17     9    34    1
    18     9    35    1
    19    10    11    1
    20    10    36    1
    21    10    37    1
    22    11    12    1
    23    11    13    1
    24    11    14    1
    25    13    38    1
    26    13    39    1
    27    13    40    1
    28    14    15    1
    29    14    16    1
    30    16    17    1
    31    16    41    1
    32    16    42    1
    33    17    43    1
    34    18    19   ar
    35    18    44    1
    36    19    20   ar
    37    19    45    1
    38    20    21    1
    39    21    22    1
    40    22    23    1
    41    22    46    1
    42    22    47    1
    43    23    28   ar
    44    23    24   ar
    45    24    25   ar
    46    24    48    1
    47    25    26   ar
    48    25    49    1
    49    26    27   ar
    50    26    50    1
    51    27    28   ar
    52    27    51    1
    53    28    29    1
@<TRIPOS>SUBSTRUCTURE
     1 ZINC000443394081        1 TEMP              0 ****  ****    0 ROOT


##########                                Name:    ZINC000182378855
##########                DOCK_Rotatable_Bonds:                   8
##########                         Heavy_Atoms:                  27
##########                    Molecular_Weight:              394.83
##########                DOCK_Rotatable_Bonds:                   8
##########                       Formal_Charge:          -0.0200001
##########                     HBond_Acceptors:                   8
##########                        HBond_Donors:                   1
##########                         Heavy_Atoms:                  27
##########                          Grid_Score:          -29.167337
##########                     Grid_vdw_energy:          -28.969599
##########                      Grid_es_energy:           -0.197738
##########           Internal_energy_repulsive:           14.358380

@<TRIPOS>MOLECULE
ZINC000182378855
 47 49 1 0 0
SMALL
USER_CHARGES


@<TRIPOS>ATOM
      1 C1          2.5694   -1.9578   49.9785 C.3     1  ZINC000182378855    0.0300
      2 O2          3.9859   -1.8064   49.8649 O.3     1  ZINC000182378855   -0.3900
      3 C3          4.3934   -0.5619   49.2930 C.3     1  ZINC000182378855    0.0600
      4 C4          4.2641    0.5469   50.3393 C.3     1  ZINC000182378855    0.0700
      5 O5          2.9106    1.0029   50.3854 O.3     1  ZINC000182378855   -0.2900
      6 C6          2.6340    2.0269   51.2315 C.ar    1  ZINC000182378855    0.3300
      7 C7          1.3598    2.5783   51.2481 C.ar    1  ZINC000182378855   -0.1300
      8 C8          1.0906    3.6314   52.1243 C.ar    1  ZINC000182378855   -0.0600
      9 C9         -0.2540    4.2515   52.1781 C.2     1  ZINC000182378855    0.5600
     10 O10        -0.4488    5.2195   52.8863 O.2     1  ZINC000182378855   -0.5200
     11 N11        -1.2610    3.7418   51.4415 N.am    1  ZINC000182378855   -0.7100
     12 C12        -2.5901    4.3560   51.4932 C.3     1  ZINC000182378855    0.1200
     13 H13        -2.5068    5.4319   51.6469 H       1  ZINC000182378855    0.1100
     14 C14        -3.4402    3.7134   52.6122 C.3     1  ZINC000182378855   -0.1700
     15 C15        -4.6415    3.0956   51.8629 C.3     1  ZINC000182378855    0.0400
     16 O16        -4.1659    2.8814   50.5161 O.3     1  ZINC000182378855   -0.3600
     17 C17        -3.3783    4.0502   50.2004 C.3     1  ZINC000182378855    0.1100
     18 H18        -4.0276    4.8876   49.9449 H       1  ZINC000182378855    0.1000
     19 C19        -2.4313    3.7540   49.0662 C.ar    1  ZINC000182378855   -0.0500
     20 C20        -1.4431    4.6624   48.7364 C.ar    1  ZINC000182378855   -0.1100
     21 C21        -0.5698    4.3898   47.6998 C.ar    1  ZINC000182378855   -0.0800
     22 C22        -0.6912    3.2126   46.9845 C.ar    1  ZINC000182378855   -0.0700
     23 Cl23        0.4011    2.8730   45.6787 Cl      1  ZINC000182378855   -0.0400
     24 C24        -1.6854    2.3040   47.3111 C.ar    1  ZINC000182378855    0.1200
     25 F25        -1.8053    1.1532   46.6135 F       1  ZINC000182378855   -0.1200
     26 C26        -2.5551    2.5763   48.3528 C.ar    1  ZINC000182378855   -0.1300
     27 C27         2.1247    4.0854   52.9506 C.ar    1  ZINC000182378855   -0.1900
     28 C28         3.3630    3.4811   52.8707 C.ar    1  ZINC000182378855    0.1400
     29 N29         3.5792    2.4846   52.0344 N.ar    1  ZINC000182378855   -0.5200
     30 H30         2.1168   -1.8949   48.9889 H       1  ZINC000182378855    0.0400
     31 H31         2.3421   -2.9275   50.4212 H       1  ZINC000182378855    0.0900
     32 H32         2.1691   -1.1663   50.6121 H       1  ZINC000182378855    0.0400
     33 H33         5.4309   -0.6344   48.9667 H       1  ZINC000182378855    0.0600
     34 H34         3.7589   -0.3300   48.4376 H       1  ZINC000182378855    0.0700
     35 H35         4.5504    0.1592   51.3169 H       1  ZINC000182378855    0.0800
     36 H36         4.9181    1.3769   50.0718 H       1  ZINC000182378855    0.0800
     37 H37         0.5892    2.1988   50.5934 H       1  ZINC000182378855    0.1600
     38 H38        -1.1058    2.9684   50.8771 H       1  ZINC000182378855    0.4000
     39 H39        -2.8715    2.9389   53.1267 H       1  ZINC000182378855    0.0900
     40 H40        -3.7792    4.4720   53.3176 H       1  ZINC000182378855    0.0900
     41 H41        -4.9268    2.1479   52.3196 H       1  ZINC000182378855    0.1000
     42 H42        -5.4851    3.7857   51.8640 H       1  ZINC000182378855    0.0700
     43 H43        -1.3507    5.5842   49.2916 H       1  ZINC000182378855    0.1500
     44 H44         0.2047    5.0984   47.4459 H       1  ZINC000182378855    0.1500
     45 H45        -3.3300    1.8688   48.6085 H       1  ZINC000182378855    0.1500
     46 H46         1.9558    4.8977   53.6420 H       1  ZINC000182378855    0.1400
     47 H47         4.1654    3.8265   53.5057 H       1  ZINC000182378855    0.1700
@<TRIPOS>BOND
     1     1     2    1
     2     1    30    1
     3     1    31    1
     4     1    32    1
     5     2     3    1
     6     3     4    1
     7     3    33    1
     8     3    34    1
     9     4     5    1
    10     4    35    1
    11     4    36    1
    12     5     6    1
    13     6    29   ar
    14     6     7   ar
    15     7     8   ar
    16     7    37    1
    17     8     9    1
    18     8    27   ar
    19     9    10    2
    20     9    11   am
    21    11    12    1
    22    11    38    1
    23    12    13    1
    24    12    17    1
    25    12    14    1
    26    14    15    1
    27    14    39    1
    28    14    40    1
    29    15    16    1
    30    15    41    1
    31    15    42    1
    32    16    17    1
    33    17    18    1
    34    17    19    1
    35    19    26   ar
    36    19    20   ar
    37    20    21   ar
    38    20    43    1
    39    21    22   ar
    40    21    44    1
    41    22    23    1
    42    22    24   ar
    43    24    25    1
    44    24    26   ar
    45    26    45    1
    46    27    28   ar
    47    27    46    1
    48    28    29   ar
    49    28    47    1
@<TRIPOS>SUBSTRUCTURE
     1 ZINC000182378855        1 TEMP              0 ****  ****    0 ROOT


##########                                Name:    ZINC000952280524
##########                DOCK_Rotatable_Bonds:                   9
##########                         Heavy_Atoms:                  25
##########                    Molecular_Weight:             348.486
##########                DOCK_Rotatable_Bonds:                   9
##########                       Formal_Charge:          -0.0100004
##########                     HBond_Acceptors:                   5
##########                        HBond_Donors:                   1
##########                         Heavy_Atoms:                  25
##########                          Grid_Score:          -29.153236
##########                     Grid_vdw_energy:          -29.039469
##########                      Grid_es_energy:           -0.113767
##########           Internal_energy_repulsive:           21.241138

@<TRIPOS>MOLECULE
ZINC000952280524
 57 59 1 0 0
SMALL
USER_CHARGES


@<TRIPOS>ATOM
      1 C1          1.4833    1.6822   48.5072 C.3     1  ZINC000952280524   -0.1800
      2 C2          1.3357    1.7943   46.9885 C.3     1  ZINC000952280524    0.1400
      3 C3          2.6341    2.3373   46.3885 C.3     1  ZINC000952280524   -0.1900
      4 O4          1.0607    0.5037   46.4400 O.3     1  ZINC000952280524   -0.5500
      5 C5          0.1838    2.7453   46.6569 C.3     1  ZINC000952280524   -0.1200
      6 C6         -1.0977    2.2029   47.2352 C.2     1  ZINC000952280524    0.5300
      7 O7         -1.5723    1.1751   46.8000 O.2     1  ZINC000952280524   -0.5100
      8 N8         -1.7165    2.8599   48.2361 N.am    1  ZINC000952280524   -0.6300
      9 C9         -1.2536    4.1105   48.8553 C.3     1  ZINC000952280524    0.1000
     10 C10        -2.2608    4.4715   49.9674 C.3     1  ZINC000952280524   -0.1300
     11 C11        -2.9258    3.1073   50.2901 C.3     1  ZINC000952280524   -0.1000
     12 H12        -2.3118    2.5264   50.9784 H       1  ZINC000952280524    0.0900
     13 C13        -4.3361    3.3035   50.8500 C.3     1  ZINC000952280524   -0.0700
     14 C14        -5.0668    1.9591   50.8739 C.3     1  ZINC000952280524   -0.1300
     15 C15        -6.4898    2.1651   51.4025 C.3     1  ZINC000952280524    0.1100
     16 N16        -6.4169    2.8356   52.7079 N.am    1  ZINC000952280524   -0.6100
     17 C17        -7.0317    2.3090   53.7856 C.2     1  ZINC000952280524    0.5500
     18 O18        -7.6542    1.2694   53.6830 O.2     1  ZINC000952280524   -0.5500
     19 C19        -6.9496    2.9920   55.0859 C.2     1  ZINC000952280524   -0.2200
     20 C20        -8.0619    3.3649   55.7124 C.2     1  ZINC000952280524   -0.0300
     21 C21        -7.9779    4.0630   57.0454 C.3     1  ZINC000952280524   -0.1500
     22 C22        -8.2921    3.2387   58.2954 C.3     1  ZINC000952280524   -0.1700
     23 C23        -6.8493    3.6467   57.9909 C.3     1  ZINC000952280524   -0.1600
     24 C24        -5.6606    4.0906   52.8162 C.3     1  ZINC000952280524    0.1000
     25 C25        -4.2469    3.8629   52.2718 C.3     1  ZINC000952280524   -0.1300
     26 C26        -2.9732    2.4471   48.8871 C.3     1  ZINC000952280524    0.1100
     27 H27         1.7790    2.6485   48.9158 H       1  ZINC000952280524    0.0700
     28 H28         0.5315    1.3792   48.9434 H       1  ZINC000952280524    0.0600
     29 H29         2.2447    0.9392   48.7443 H       1  ZINC000952280524    0.0600
     30 H30         3.4547    1.6598   46.6247 H       1  ZINC000952280524    0.0600
     31 H31         2.5289    2.4172   45.3065 H       1  ZINC000952280524    0.0800
     32 H32         2.8439    3.3218   46.8068 H       1  ZINC000952280524    0.0600
     33 H33         0.9652    0.4975   45.4778 H       1  ZINC000952280524    0.3700
     34 H34         0.3885    3.7268   47.0844 H       1  ZINC000952280524    0.1000
     35 H35         0.0855    2.8334   45.5750 H       1  ZINC000952280524    0.1000
     36 H36        -0.2624    3.9663   49.2853 H       1  ZINC000952280524    0.0700
     37 H37        -1.2244    4.9048   48.1094 H       1  ZINC000952280524    0.0700
     38 H38        -1.7441    4.8653   50.8426 H       1  ZINC000952280524    0.0800
     39 H39        -3.0002    5.1839   49.6015 H       1  ZINC000952280524    0.0800
     40 H40        -4.8836    4.0030   50.2183 H       1  ZINC000952280524    0.0800
     41 H41        -5.1094    1.5502   49.8644 H       1  ZINC000952280524    0.0800
     42 H42        -4.5335    1.2666   51.5252 H       1  ZINC000952280524    0.0700
     43 H43        -7.0528    2.7847   50.7045 H       1  ZINC000952280524    0.0700
     44 H44        -6.9814    1.1987   51.5150 H       1  ZINC000952280524    0.0900
     45 H45        -5.9862    3.1906   55.5316 H       1  ZINC000952280524    0.1300
     46 H46        -9.0252    3.1675   55.2659 H       1  ZINC000952280524    0.1300
     47 H47        -8.2740    5.1119   57.0462 H       1  ZINC000952280524    0.1200
     48 H48        -8.7952    3.7453   59.1190 H       1  ZINC000952280524    0.1000
     49 H49        -8.5595    2.1916   58.1537 H       1  ZINC000952280524    0.1000
     50 H50        -6.1675    2.8680   57.6488 H       1  ZINC000952280524    0.1000
     51 H51        -6.4032    4.4218   58.6141 H       1  ZINC000952280524    0.1000
     52 H52        -6.1559    4.8672   52.2335 H       1  ZINC000952280524    0.0700
     53 H53        -5.6050    4.3946   53.8615 H       1  ZINC000952280524    0.0900
     54 H54        -3.7213    3.1525   52.9099 H       1  ZINC000952280524    0.0700
     55 H55        -3.7059    4.8091   52.2573 H       1  ZINC000952280524    0.0800
     56 H56        -3.8343    2.8101   48.3260 H       1  ZINC000952280524    0.0700
     57 H57        -3.0099    1.3617   48.9797 H       1  ZINC000952280524    0.0800
@<TRIPOS>BOND
     1     1     2    1
     2     1    27    1
     3     1    28    1
     4     1    29    1
     5     2     3    1
     6     2     4    1
     7     2     5    1
     8     3    30    1
     9     3    31    1
    10     3    32    1
    11     4    33    1
    12     5     6    1
    13     5    34    1
    14     5    35    1
    15     6     7    2
    16     6     8   am
    17     8    26    1
    18     8     9    1
    19     9    10    1
    20     9    36    1
    21     9    37    1
    22    10    11    1
    23    10    38    1
    24    10    39    1
    25    11    12    1
    26    11    13    1
    27    11    26    1
    28    13    25    1
    29    13    14    1
    30    13    40    1
    31    14    15    1
    32    14    41    1
    33    14    42    1
    34    15    16    1
    35    15    43    1
    36    15    44    1
    37    16    17   am
    38    16    24    1
    39    17    18    2
    40    17    19    1
    41    19    20    2
    42    19    45    1
    43    20    21    1
    44    20    46    1
    45    21    23    1
    46    21    22    1
    47    21    47    1
    48    22    23    1
    49    22    48    1
    50    22    49    1
    51    23    50    1
    52    23    51    1
    53    24    25    1
    54    24    52    1
    55    24    53    1
    56    25    54    1
    57    25    55    1
    58    26    56    1
    59    26    57    1
@<TRIPOS>SUBSTRUCTURE
     1 ZINC000952280524        1 TEMP              0 ****  ****    0 ROOT


##########                                Name:    ZINC001085711660
##########                DOCK_Rotatable_Bonds:                   8
##########                         Heavy_Atoms:                  25
##########                    Molecular_Weight:             347.414
##########                DOCK_Rotatable_Bonds:                   8
##########                       Formal_Charge:         -0.00999993
##########                     HBond_Acceptors:                   7
##########                        HBond_Donors:                   0
##########                         Heavy_Atoms:                  25
##########                          Grid_Score:          -29.142239
##########                     Grid_vdw_energy:          -29.218864
##########                      Grid_es_energy:            0.076625
##########           Internal_energy_repulsive:           17.582579

@<TRIPOS>MOLECULE
ZINC001085711660
 50 52 1 0 0
SMALL
USER_CHARGES


@<TRIPOS>ATOM
      1 C1        -12.9574   -2.2009   54.8525 C.3     1  ZINC001085711660    0.0300
      2 O2        -12.9320   -1.4581   53.6320 O.3     1  ZINC001085711660   -0.3800
      3 C3        -11.8508   -1.8036   52.7637 C.3     1  ZINC001085711660    0.1400
      4 C4        -10.7228   -0.8220   52.9508 C.2     1  ZINC001085711660    0.0100
      5 C5        -10.6271    0.0863   53.9468 C.2     1  ZINC001085711660   -0.1900
      6 C6         -9.4305    0.7926   53.7482 C.2     1  ZINC001085711660   -0.1200
      7 C7         -8.8495    0.2731   52.6271 C.2     1  ZINC001085711660   -0.0700
      8 C8         -7.5781    0.7041   52.0367 C.2     1  ZINC001085711660    0.6000
      9 O9         -6.6082   -0.0299   52.0776 O.2     1  ZINC001085711660   -0.5200
     10 N10        -7.4837    1.9133   51.4489 N.am    1  ZINC001085711660   -0.6000
     11 C11        -8.6511    2.7971   51.3998 C.3     1  ZINC001085711660    0.0700
     12 C12        -6.2136    2.3440   50.8592 C.3     1  ZINC001085711660    0.1300
     13 C13        -5.3339    2.9691   51.9437 C.3     1  ZINC001085711660    0.0000
     14 H14        -4.8493    2.2240   52.5747 H       1  ZINC001085711660    0.1000
     15 C15        -6.0375    4.0786   52.7377 C.3     1  ZINC001085711660   -0.1400
     16 C16        -4.6661    4.7643   52.6630 C.3     1  ZINC001085711660    0.0100
     17 N17        -4.4078    3.9955   51.4298 N.3     1  ZINC001085711660   -0.4500
     18 C18        -3.0273    3.4944   51.4013 C.3     1  ZINC001085711660    0.1500
     19 H19        -2.9162    2.6937   52.1325 H       1  ZINC001085711660    0.1000
     20 C20        -2.0641    4.6333   51.7418 C.3     1  ZINC001085711660   -0.1900
     21 C21        -2.7133    2.9654   50.0255 C.2     1  ZINC001085711660    0.2000
     22 N22        -3.4710    2.1676   49.3283 N.2     1  ZINC001085711660   -0.4700
     23 C23        -2.8648    1.9130   48.1553 C.2     1  ZINC001085711660   -0.0400
     24 C24        -1.6997    2.5814   48.1449 C.2     1  ZINC001085711660   -0.0500
     25 C25        -0.6848    2.5942   47.0309 C.3     1  ZINC001085711660   -0.0700
     26 O26        -1.6115    3.2427   49.3157 O.3     1  ZINC001085711660   -0.2000
     27 O27        -9.6472   -0.7099   52.1607 O.3     1  ZINC001085711660   -0.1500
     28 H28       -13.0513   -3.2635   54.6291 H       1  ZINC001085711660    0.0500
     29 H29       -12.0334   -2.0257   55.4037 H       1  ZINC001085711660    0.0500
     30 H30       -13.8067   -1.8798   55.4556 H       1  ZINC001085711660    0.0900
     31 H31       -11.5012   -2.8083   53.0008 H       1  ZINC001085711660    0.0900
     32 H32       -12.1917   -1.7723   51.7288 H       1  ZINC001085711660    0.0700
     33 H33       -11.3378    0.2398   54.7454 H       1  ZINC001085711660    0.1600
     34 H34        -9.0443    1.5922   54.3630 H       1  ZINC001085711660    0.1600
     35 H35        -8.7255    3.3531   52.3343 H       1  ZINC001085711660    0.0600
     36 H36        -8.5438    3.4948   50.5694 H       1  ZINC001085711660    0.0900
     37 H37        -9.5525    2.2007   51.2591 H       1  ZINC001085711660    0.0800
     38 H38        -5.7026    1.4829   50.4284 H       1  ZINC001085711660    0.0900
     39 H39        -6.4064    3.0800   50.0787 H       1  ZINC001085711660    0.0900
     40 H40        -6.8242    4.5925   52.1853 H       1  ZINC001085711660    0.1000
     41 H41        -6.3362    3.7862   53.7445 H       1  ZINC001085711660    0.0800
     42 H42        -4.7269    5.8402   52.5000 H       1  ZINC001085711660    0.0900
     43 H43        -4.0025    4.4988   53.4860 H       1  ZINC001085711660    0.0800
     44 H44        -2.2506    5.4776   51.0781 H       1  ZINC001085711660    0.0800
     45 H45        -2.2182    4.9427   52.7755 H       1  ZINC001085711660    0.0800
     46 H46        -1.0371    4.2910   51.6143 H       1  ZINC001085711660    0.0700
     47 H47        -3.2460    1.2842   47.3642 H       1  ZINC001085711660    0.1800
     48 H48        -0.9102    3.4095   46.3435 H       1  ZINC001085711660    0.0800
     49 H49         0.3118    2.7363   47.4489 H       1  ZINC001085711660    0.0800
     50 H50        -0.7220    1.6460   46.4947 H       1  ZINC001085711660    0.0900
@<TRIPOS>BOND
     1     1     2    1
     2     1    28    1
     3     1    29    1
     4     1    30    1
     5     2     3    1
     6     3     4    1
     7     3    31    1
     8     3    32    1
     9     4    27    1
    10     4     5    2
    11     5     6    1
    12     5    33    1
    13     6     7    2
    14     6    34    1
    15     7     8    1
    16     7    27    1
    17     8     9    2
    18     8    10   am
    19    10    11    1
    20    10    12    1
    21    11    35    1
    22    11    36    1
    23    11    37    1
    24    12    13    1
    25    12    38    1
    26    12    39    1
    27    13    14    1
    28    13    17    1
    29    13    15    1
    30    15    16    1
    31    15    40    1
    32    15    41    1
    33    16    17    1
    34    16    42    1
    35    16    43    1
    36    17    18    1
    37    18    19    1
    38    18    20    1
    39    18    21    1
    40    20    44    1
    41    20    45    1
    42    20    46    1
    43    21    26    1
    44    21    22    2
    45    22    23    1
    46    23    24    2
    47    23    47    1
    48    24    25    1
    49    24    26    1
    50    25    48    1
    51    25    49    1
    52    25    50    1
@<TRIPOS>SUBSTRUCTURE
     1 ZINC001085711660        1 TEMP              0 ****  ****    0 ROOT


##########                                Name:    ZINC000265724350
##########                DOCK_Rotatable_Bonds:                   8
##########                         Heavy_Atoms:                  23
##########                    Molecular_Weight:              345.42
##########                DOCK_Rotatable_Bonds:                   8
##########                       Formal_Charge:          -0.0300002
##########                     HBond_Acceptors:                   9
##########                        HBond_Donors:                   2
##########                         Heavy_Atoms:                  23
##########                          Grid_Score:          -29.116129
##########                     Grid_vdw_energy:          -28.053034
##########                      Grid_es_energy:           -1.063095
##########           Internal_energy_repulsive:            5.483710

@<TRIPOS>MOLECULE
ZINC000265724350
 46 47 1 0 0
SMALL
USER_CHARGES


@<TRIPOS>ATOM
      1 C1          5.7515   -1.2698   50.6315 C.3     1  ZINC000265724350    0.0800
      2 N2          4.3830   -1.7489   50.8413 N.am    1  ZINC000265724350   -1.1100
      3 S3          3.1810   -1.3073   49.7914 S.o2    1  ZINC000265724350    2.7200
      4 O4          3.6381   -1.6510   48.4906 O.2     1  ZINC000265724350   -0.9300
      5 O5          1.9664   -1.7969   50.3430 O.2     1  ZINC000265724350   -0.9300
      6 C6          3.0728    0.4510   49.8323 C.2     1  ZINC000265724350   -0.5600
      7 C7          3.7320    1.2992   49.0125 C.2     1  ZINC000265724350   -0.0900
      8 C8          3.3629    2.6019   49.3828 C.2     1  ZINC000265724350   -0.1400
      9 C9          2.4863    2.4809   50.4227 C.2     1  ZINC000265724350   -0.0200
     10 C10         1.8360    3.5860   51.1346 C.2     1  ZINC000265724350    0.6000
     11 O11         2.1981    4.7316   50.9406 O.2     1  ZINC000265724350   -0.5000
     12 N12         0.8373    3.3329   52.0034 N.am    1  ZINC000265724350   -0.7100
     13 C13         0.1865    4.4370   52.7133 C.3     1  ZINC000265724350    0.1200
     14 C14        -1.3186    4.1743   52.7945 C.3     1  ZINC000265724350   -0.1100
     15 H15        -1.4936    3.1105   52.9547 H       1  ZINC000265724350    0.0800
     16 C16        -1.9129    4.9698   53.9584 C.3     1  ZINC000265724350   -0.1400
     17 C17        -1.9835    4.6095   51.4871 C.3     1  ZINC000265724350    0.0600
     18 N18        -2.5710    3.4382   50.8231 N.3     1  ZINC000265724350   -0.5300
     19 C19        -2.2363    3.4208   49.3918 C.3     1  ZINC000265724350    0.0100
     20 C20        -2.8163    2.1563   48.7527 C.3     1  ZINC000265724350    0.0600
     21 O21        -4.2279    2.1184   48.9791 O.3     1  ZINC000265724350   -0.3900
     22 C22        -4.5898    2.1334   50.3626 C.3     1  ZINC000265724350    0.0600
     23 C23        -4.0277    3.3977   51.0179 C.3     1  ZINC000265724350    0.0200
     24 O24         2.3191    1.1666   50.6770 O.3     1  ZINC000265724350   -0.1100
     25 H25         6.3980   -1.6614   51.4168 H       1  ZINC000265724350    0.0900
     26 H26         6.1111   -1.6113   49.6608 H       1  ZINC000265724350    0.0600
     27 H27         5.7635   -0.1802   50.6606 H       1  ZINC000265724350    0.0700
     28 H28         4.1810   -2.3247   51.5954 H       1  ZINC000265724350    0.4200
     29 H29         4.4145    1.0262   48.2213 H       1  ZINC000265724350    0.1800
     30 H30         3.7060    3.5216   48.9325 H       1  ZINC000265724350    0.1700
     31 H31         0.5495    2.4198   52.1589 H       1  ZINC000265724350    0.4100
     32 H32         0.5969    4.5138   53.7201 H       1  ZINC000265724350    0.0800
     33 H33         0.3642    5.3689   52.1765 H       1  ZINC000265724350    0.0700
     34 H34        -1.4392    4.6598   54.8899 H       1  ZINC000265724350    0.0500
     35 H35        -1.7379    6.0337   53.7983 H       1  ZINC000265724350    0.0600
     36 H36        -2.9852    4.7827   54.0164 H       1  ZINC000265724350    0.0700
     37 H37        -2.7669    5.3362   51.7022 H       1  ZINC000265724350    0.0800
     38 H38        -1.2378    5.0618   50.8333 H       1  ZINC000265724350    0.0400
     39 H39        -2.6605    4.3006   48.9080 H       1  ZINC000265724350    0.0400
     40 H40        -1.1529    3.4254   49.2713 H       1  ZINC000265724350    0.0900
     41 H41        -2.6197    2.1673   47.6807 H       1  ZINC000265724350    0.1000
     42 H42        -2.3523    1.2770   49.1996 H       1  ZINC000265724350    0.0600
     43 H43        -5.6759    2.1278   50.4548 H       1  ZINC000265724350    0.1000
     44 H44        -4.1774    1.2534   50.8562 H       1  ZINC000265724350    0.0600
     45 H45        -4.2521    3.3854   52.0844 H       1  ZINC000265724350    0.0900
     46 H46        -4.4807    4.2771   50.5601 H       1  ZINC000265724350    0.0400
@<TRIPOS>BOND
     1     1     2    1
     2     1    25    1
     3     1    26    1
     4     1    27    1
     5     2     3   am
     6     2    28    1
     7     3     4    2
     8     3     5    2
     9     3     6    1
    10     6    24    1
    11     6     7    2
    12     7     8    1
    13     7    29    1
    14     8     9    2
    15     8    30    1
    16     9    10    1
    17     9    24    1
    18    10    11    2
    19    10    12   am
    20    12    13    1
    21    12    31    1
    22    13    14    1
    23    13    32    1
    24    13    33    1
    25    14    15    1
    26    14    16    1
    27    14    17    1
    28    16    34    1
    29    16    35    1
    30    16    36    1
    31    17    18    1
    32    17    37    1
    33    17    38    1
    34    18    23    1
    35    18    19    1
    36    19    20    1
    37    19    39    1
    38    19    40    1
    39    20    21    1
    40    20    41    1
    41    20    42    1
    42    21    22    1
    43    22    23    1
    44    22    43    1
    45    22    44    1
    46    23    45    1
    47    23    46    1
@<TRIPOS>SUBSTRUCTURE
     1 ZINC000265724350        1 TEMP              0 ****  ****    0 ROOT


##########                                Name:    ZINC001456607258
##########                DOCK_Rotatable_Bonds:                   9
##########                         Heavy_Atoms:                  25
##########                    Molecular_Weight:             339.437
##########                DOCK_Rotatable_Bonds:                   9
##########                       Formal_Charge:          -0.0200009
##########                     HBond_Acceptors:                   5
##########                        HBond_Donors:                   2
##########                         Heavy_Atoms:                  25
##########                          Grid_Score:          -29.070423
##########                     Grid_vdw_energy:          -26.553783
##########                      Grid_es_energy:           -2.516639
##########           Internal_energy_repulsive:           13.806460

@<TRIPOS>MOLECULE
ZINC001456607258
 50 52 1 0 0
SMALL
USER_CHARGES


@<TRIPOS>ATOM
      1 C1         -1.7832    4.3370   52.9277 C.3     1  ZINC001456607258   -0.1600
      2 C2         -3.1342    4.1890   52.2249 C.3     1  ZINC001456607258   -0.1100
      3 C3         -2.9843    3.2534   51.0236 C.3     1  ZINC001456607258   -0.1000
      4 H4         -2.2822    2.4567   51.2689 H       1  ZINC001456607258    0.0900
      5 C5         -2.4594    4.0443   49.8236 C.3     1  ZINC001456607258   -0.0700
      6 C6         -1.5363    3.1721   49.0122 C.ar    1  ZINC001456607258   -0.0800
      7 C7         -2.0176    2.4981   47.9054 C.ar    1  ZINC001456607258   -0.1200
      8 C8         -1.1709    1.6980   47.1612 C.ar    1  ZINC001456607258   -0.1200
      9 C9          0.1572    1.5723   47.5236 C.ar    1  ZINC001456607258   -0.1200
     10 C10         0.6387    2.2470   48.6298 C.ar    1  ZINC001456607258   -0.1200
     11 C11        -0.2070    3.0505   49.3715 C.ar    1  ZINC001456607258   -0.1200
     12 C12        -4.3247    2.6546   50.6831 C.2     1  ZINC001456607258    0.5200
     13 O13        -4.3886    1.6816   49.9619 O.2     1  ZINC001456607258   -0.5300
     14 N14        -5.4524    3.2003   51.1800 N.am    1  ZINC001456607258   -0.7300
     15 C15        -6.7554    2.6181   50.8490 C.3     1  ZINC001456607258    0.1300
     16 C16        -7.7153    2.8152   52.0240 C.3     1  ZINC001456607258   -0.1400
     17 C17        -8.4597    1.5329   52.4380 C.3     1  ZINC001456607258    0.1100
     18 N18        -8.2017    1.9524   53.8293 N.am    1  ZINC001456607258   -0.6500
     19 C19        -8.7961    1.7101   55.0144 C.2     1  ZINC001456607258    0.6100
     20 O20        -9.7778    0.9939   55.0673 O.2     1  ZINC001456607258   -0.5400
     21 C21        -8.2568    2.3124   56.2453 C.2     1  ZINC001456607258   -0.2300
     22 C22        -6.9899    2.7894   56.4403 C.2     1  ZINC001456607258    0.0400
     23 N23        -6.9009    3.2565   57.7001 N.pl3   1  ZINC001456607258   -0.5500
     24 C24        -8.0908    3.0981   58.3489 C.2     1  ZINC001456607258   -0.0200
     25 C25        -8.9718    2.5281   57.5078 C.2     1  ZINC001456607258   -0.1400
     26 C26        -7.0318    2.7436   53.4015 C.3     1  ZINC001456607258    0.1100
     27 H27        -1.8682    5.0733   53.7270 H       1  ZINC001456607258    0.0600
     28 H28        -1.4855    3.3766   53.3486 H       1  ZINC001456607258    0.0600
     29 H29        -1.0336    4.6666   52.2084 H       1  ZINC001456607258    0.0600
     30 H30        -3.8622    3.7726   52.9211 H       1  ZINC001456607258    0.0800
     31 H31        -3.4753    5.1665   51.8839 H       1  ZINC001456607258    0.0700
     32 H32        -3.2974    4.3622   49.2034 H       1  ZINC001456607258    0.0800
     33 H33        -1.9150    4.9204   50.1759 H       1  ZINC001456607258    0.0900
     34 H34        -3.0552    2.5963   47.6223 H       1  ZINC001456607258    0.1200
     35 H35        -1.5471    1.1709   46.2969 H       1  ZINC001456607258    0.1200
     36 H36         0.8185    0.9467   46.9426 H       1  ZINC001456607258    0.1200
     37 H37         1.6762    2.1485   48.9131 H       1  ZINC001456607258    0.1200
     38 H38         0.1692    3.5776   50.2358 H       1  ZINC001456607258    0.1200
     39 H39        -5.4013    3.9784   51.7569 H       1  ZINC001456607258    0.4000
     40 H40        -7.1588    3.1101   49.9639 H       1  ZINC001456607258    0.0700
     41 H41        -6.6376    1.5528   50.6507 H       1  ZINC001456607258    0.0800
     42 H42        -8.3651    3.6817   51.9011 H       1  ZINC001456607258    0.1100
     43 H43        -9.5159    1.5315   52.1683 H       1  ZINC001456607258    0.0800
     44 H44        -7.9455    0.6150   52.1533 H       1  ZINC001456607258    0.0900
     45 H45        -6.1957    2.7908   55.7083 H       1  ZINC001456607258    0.1700
     46 H46        -6.1045    3.6492   58.0906 H       1  ZINC001456607258    0.4200
     47 H47        -8.2933    3.3878   59.3693 H       1  ZINC001456607258    0.1700
     48 H48        -9.9992    2.2728   57.7218 H       1  ZINC001456607258    0.1500
     49 H49        -6.0980    2.1812   53.3998 H       1  ZINC001456607258    0.0900
     50 H50        -6.9477    3.7087   53.9010 H       1  ZINC001456607258    0.0900
@<TRIPOS>BOND
     1     1     2    1
     2     1    27    1
     3     1    28    1
     4     1    29    1
     5     2     3    1
     6     2    30    1
     7     2    31    1
     8     3     4    1
     9     3     5    1
    10     3    12    1
    11     5     6    1
    12     5    32    1
    13     5    33    1
    14     6    11   ar
    15     6     7   ar
    16     7     8   ar
    17     7    34    1
    18     8     9   ar
    19     8    35    1
    20     9    10   ar
    21     9    36    1
    22    10    11   ar
    23    10    37    1
    24    11    38    1
    25    12    13    2
    26    12    14   am
    27    14    15    1
    28    14    39    1
    29    15    16    1
    30    15    40    1
    31    15    41    1
    32    16    26    1
    33    16    17    1
    34    16    42    1
    35    17    18    1
    36    17    43    1
    37    17    44    1
    38    18    19   am
    39    18    26    1
    40    19    20    2
    41    19    21    1
    42    21    25    1
    43    21    22    2
    44    22    23    1
    45    22    45    1
    46    23    24    1
    47    23    46    1
    48    24    25    2
    49    24    47    1
    50    25    48    1
    51    26    49    1
    52    26    50    1
@<TRIPOS>SUBSTRUCTURE
     1 ZINC001456607258        1 TEMP              0 ****  ****    0 ROOT


##########                                Name:    ZINC000797321835
##########                DOCK_Rotatable_Bonds:                   4
##########                         Heavy_Atoms:                  22
##########                    Molecular_Weight:             381.253
##########                DOCK_Rotatable_Bonds:                   4
##########                       Formal_Charge:           0.0200001
##########                     HBond_Acceptors:                   7
##########                        HBond_Donors:                   1
##########                         Heavy_Atoms:                  22
##########                          Grid_Score:          -29.070202
##########                     Grid_vdw_energy:          -27.002344
##########                      Grid_es_energy:           -2.067858
##########           Internal_energy_repulsive:            8.271397

@<TRIPOS>MOLECULE
ZINC000797321835
 35 37 1 0 0
SMALL
USER_CHARGES


@<TRIPOS>ATOM
      1 C1         -8.5488    4.0610   52.2922 C.3     1  ZINC000797321835    0.1000
      2 N2         -8.5497    2.6050   52.4540 N.am    1  ZINC000797321835   -0.6000
      3 C3         -9.6582    1.8449   52.4752 C.2     1  ZINC000797321835    0.5200
      4 O4        -10.7909    2.2654   52.3702 O.2     1  ZINC000797321835   -0.5200
      5 C5         -9.2872    0.3886   52.6483 C.3     1  ZINC000797321835   -0.1500
      6 C6         -7.7788    0.3389   52.3113 C.3     1  ZINC000797321835   -0.1200
      7 C7         -7.3401    1.7882   52.6079 C.3     1  ZINC000797321835    0.1200
      8 H8         -6.9660    1.8677   53.6285 H       1  ZINC000797321835    0.1100
      9 C9         -6.2798    2.2227   51.6292 C.2     1  ZINC000797321835    0.4900
     10 O10        -6.5963    2.7828   50.6011 O.2     1  ZINC000797321835   -0.4400
     11 N11        -4.9796    1.9887   51.8964 N.am    1  ZINC000797321835   -0.6500
     12 C12        -3.9982    2.3909   50.9906 C.ar    1  ZINC000797321835    0.3000
     13 C13        -2.8706    3.0774   51.4426 C.ar    1  ZINC000797321835   -0.1400
     14 C14        -1.9228    3.4564   50.5094 C.ar    1  ZINC000797321835   -0.0800
     15 C15        -2.1546    3.1270   49.1674 C.ar    1  ZINC000797321835    0.1100
     16 C16        -1.1741    3.5078   48.1307 C.2     1  ZINC000797321835   -0.1400
     17 C17        -0.3959    4.6086   48.1620 C.2     1  ZINC000797321835   -0.0900
     18 C18         0.4442    4.7519   47.0779 C.2     1  ZINC000797321835   -0.0900
     19 C19         0.3590    3.7795   46.1632 C.2     1  ZINC000797321835   -0.2000
     20 Br20        1.3758    3.6914   44.5712 Br      1  ZINC000797321835    0.0200
     21 S21        -0.8356    2.5918   46.6679 S.3     1  ZINC000797321835    0.1900
     22 N22        -3.2596    2.4703   48.8314 N.ar    1  ZINC000797321835   -0.1900
     23 N23        -4.1337    2.1165   49.7022 N.ar    1  ZINC000797321835   -0.2200
     24 H24        -8.4955    4.3087   51.2320 H       1  ZINC000797321835    0.0700
     25 H25        -9.4639    4.4743   52.7162 H       1  ZINC000797321835    0.0800
     26 H26        -7.6863    4.4834   52.8077 H       1  ZINC000797321835    0.0700
     27 H27        -9.4590    0.0708   53.6766 H       1  ZINC000797321835    0.1100
     28 H28        -9.8535   -0.2343   51.9558 H       1  ZINC000797321835    0.1100
     29 H29        -7.2581   -0.3688   52.9564 H       1  ZINC000797321835    0.1100
     30 H30        -7.6217    0.0952   51.2606 H       1  ZINC000797321835    0.0900
     31 H31        -4.7264    1.5408   52.7187 H       1  ZINC000797321835    0.4200
     32 H32        -2.7419    3.3063   52.4901 H       1  ZINC000797321835    0.1600
     33 H33        -1.0319    3.9900   50.8059 H       1  ZINC000797321835    0.1500
     34 H34        -0.4282    5.3220   48.9723 H       1  ZINC000797321835    0.1600
     35 H35         1.1206    5.5874   46.9749 H       1  ZINC000797321835    0.1600
@<TRIPOS>BOND
     1     1     2    1
     2     1    24    1
     3     1    25    1
     4     1    26    1
     5     2     7    1
     6     2     3   am
     7     3     4    2
     8     3     5    1
     9     5     6    1
    10     5    27    1
    11     5    28    1
    12     6     7    1
    13     6    29    1
    14     6    30    1
    15     7     8    1
    16     7     9    1
    17     9    10    2
    18     9    11   am
    19    11    12    1
    20    11    31    1
    21    12    23   ar
    22    12    13   ar
    23    13    14   ar
    24    13    32    1
    25    14    15   ar
    26    14    33    1
    27    15    16    1
    28    15    22   ar
    29    16    21    1
    30    16    17    2
    31    17    18    1
    32    17    34    1
    33    18    19    2
    34    18    35    1
    35    19    20    1
    36    19    21    1
    37    22    23   ar
@<TRIPOS>SUBSTRUCTURE
     1 ZINC000797321835        1 TEMP              0 ****  ****    0 ROOT


##########                                Name:    ZINC000123469372
##########                DOCK_Rotatable_Bonds:                   7
##########                         Heavy_Atoms:                  25
##########                    Molecular_Weight:             341.382
##########                DOCK_Rotatable_Bonds:                   7
##########                       Formal_Charge:          -0.0300001
##########                     HBond_Acceptors:                   5
##########                        HBond_Donors:                   2
##########                         Heavy_Atoms:                  25
##########                          Grid_Score:          -29.055365
##########                     Grid_vdw_energy:          -28.136139
##########                      Grid_es_energy:           -0.919226
##########           Internal_energy_repulsive:            8.544291

@<TRIPOS>MOLECULE
ZINC000123469372
 45 47 1 0 0
SMALL
USER_CHARGES


@<TRIPOS>ATOM
      1 C1         -0.3658    5.0152   47.8723 C.3     1  ZINC000123469372   -0.1700
      2 C2         -1.0515    3.6567   48.0323 C.3     1  ZINC000123469372    0.1500
      3 H3         -1.6569    3.4492   47.1499 H       1  ZINC000123469372    0.0900
      4 C4          0.0093    2.5657   48.1911 C.3     1  ZINC000123469372   -0.1600
      5 C5          0.0943    1.7456   46.9023 C.3     1  ZINC000123469372    0.1500
      6 H6         -0.9081    1.5918   46.5027 H       1  ZINC000123469372    0.1100
      7 O7          0.6950    0.4795   47.1819 O.3     1  ZINC000123469372   -0.5500
      8 C8          0.9304    2.4857   45.8902 C.ar    1  ZINC000123469372   -0.1200
      9 C9          0.3181    3.1961   44.8747 C.ar    1  ZINC000123469372   -0.1100
     10 C10         1.0851    3.8751   43.9463 C.ar    1  ZINC000123469372   -0.1200
     11 C11         2.4644    3.8438   44.0337 C.ar    1  ZINC000123469372   -0.1200
     12 C12         3.0766    3.1341   45.0498 C.ar    1  ZINC000123469372   -0.1200
     13 C13         2.3096    2.4588   45.9807 C.ar    1  ZINC000123469372   -0.1100
     14 N14        -1.9099    3.6797   49.2191 N.am    1  ZINC000123469372   -0.7100
     15 C15        -2.9180    2.7933   49.3389 C.2     1  ZINC000123469372    0.5700
     16 O16        -3.1162    1.9745   48.4603 O.2     1  ZINC000123469372   -0.5400
     17 C17        -3.7739    2.8151   50.5245 C.2     1  ZINC000123469372   -0.2200
     18 C18        -4.9799    2.1956   50.5053 C.2     1  ZINC000123469372    0.0000
     19 C19        -5.8088    2.2659   51.7188 C.ar    1  ZINC000123469372   -0.1200
     20 C20        -6.8872    1.4044   51.9143 C.ar    1  ZINC000123469372   -0.0900
     21 C21        -7.6388    1.5066   53.0694 C.ar    1  ZINC000123469372    0.0700
     22 F22        -8.6853    0.6751   53.2665 F       1  ZINC000123469372   -0.1400
     23 C23        -7.3234    2.4587   54.0276 C.ar    1  ZINC000123469372   -0.1100
     24 C24        -6.2557    3.3176   53.8419 C.ar    1  ZINC000123469372   -0.1200
     25 C25        -5.4922    3.2295   52.6922 C.ar    1  ZINC000123469372    0.1300
     26 O26        -4.4394    4.0579   52.4807 O.3     1  ZINC000123469372   -0.3000
     27 C27        -3.3169    3.5207   51.7747 C.3     1  ZINC000123469372    0.1100
     28 H28         0.2729    4.9981   46.9893 H       1  ZINC000123469372    0.0700
     29 H29        -1.1215    5.7924   47.7592 H       1  ZINC000123469372    0.0600
     30 H30         0.2396    5.2227   48.7547 H       1  ZINC000123469372    0.0600
     31 H31         0.9764    3.0258   48.3935 H       1  ZINC000123469372    0.0900
     32 H32        -0.2628    1.9124   49.0201 H       1  ZINC000123469372    0.0800
     33 H33         1.5897    0.5401   47.5439 H       1  ZINC000123469372    0.3700
     34 H34        -0.7594    3.2205   44.8063 H       1  ZINC000123469372    0.1200
     35 H35         0.6067    4.4295   43.1525 H       1  ZINC000123469372    0.1200
     36 H36         3.0635    4.3735   43.3080 H       1  ZINC000123469372    0.1200
     37 H37         4.1542    3.1095   45.1179 H       1  ZINC000123469372    0.1200
     38 H38         2.7879    1.9044   46.7746 H       1  ZINC000123469372    0.1200
     39 H39        -1.7529    4.3330   49.9187 H       1  ZINC000123469372    0.4000
     40 H40        -5.3212    1.6677   49.6271 H       1  ZINC000123469372    0.1500
     41 H41        -7.1336    0.6630   51.1686 H       1  ZINC000123469372    0.1500
     42 H42        -7.9174    2.5300   54.9268 H       1  ZINC000123469372    0.1500
     43 H43        -6.0184    4.0560   54.5934 H       1  ZINC000123469372    0.1500
     44 H44        -2.7879    2.8189   52.4194 H       1  ZINC000123469372    0.0800
     45 H45        -2.6423    4.3317   51.5000 H       1  ZINC000123469372    0.1100
@<TRIPOS>BOND
     1     1     2    1
     2     1    28    1
     3     1    29    1
     4     1    30    1
     5     2     3    1
     6     2     4    1
     7     2    14    1
     8     4     5    1
     9     4    31    1
    10     4    32    1
    11     5     6    1
    12     5     7    1
    13     5     8    1
    14     7    33    1
    15     8    13   ar
    16     8     9   ar
    17     9    10   ar
    18     9    34    1
    19    10    11   ar
    20    10    35    1
    21    11    12   ar
    22    11    36    1
    23    12    13   ar
    24    12    37    1
    25    13    38    1
    26    14    15   am
    27    14    39    1
    28    15    16    2
    29    15    17    1
    30    17    27    1
    31    17    18    2
    32    18    19    1
    33    18    40    1
    34    19    25   ar
    35    19    20   ar
    36    20    21   ar
    37    20    41    1
    38    21    22    1
    39    21    23   ar
    40    23    24   ar
    41    23    42    1
    42    24    25   ar
    43    24    43    1
    44    25    26    1
    45    26    27    1
    46    27    44    1
    47    27    45    1
@<TRIPOS>SUBSTRUCTURE
     1 ZINC000123469372        1 TEMP              0 ****  ****    0 ROOT


##########                                Name:    ZINC000918875053
##########                DOCK_Rotatable_Bonds:                   6
##########                         Heavy_Atoms:                  26
##########                    Molecular_Weight:             359.357
##########                DOCK_Rotatable_Bonds:                   6
##########                       Formal_Charge:           0.0200003
##########                     HBond_Acceptors:                   8
##########                        HBond_Donors:                   0
##########                         Heavy_Atoms:                  26
##########                          Grid_Score:          -29.039175
##########                     Grid_vdw_energy:          -28.736757
##########                      Grid_es_energy:           -0.302417
##########           Internal_energy_repulsive:            7.392510

@<TRIPOS>MOLECULE
ZINC000918875053
 44 47 1 0 0
SMALL
USER_CHARGES


@<TRIPOS>ATOM
      1 C1         -0.8896    1.9012   46.8104 C.3     1  ZINC000918875053   -0.1700
      2 C2          0.1466    2.3755   47.8314 C.3     1  ZINC000918875053    0.1900
      3 H3          0.7069    3.2140   47.4177 H       1  ZINC000918875053    0.1400
      4 O4         -0.5283    2.7965   49.0462 O.3     1  ZINC000918875053   -0.3400
      5 C5         -1.1590    3.9809   49.0136 C.2     1  ZINC000918875053    0.4800
      6 O6         -0.8491    4.8079   48.1890 O.2     1  ZINC000918875053   -0.4900
      7 C7         -2.2536    4.2792   50.0055 C.3     1  ZINC000918875053   -0.0900
      8 H8         -2.7485    5.2203   49.7659 H       1  ZINC000918875053    0.1400
      9 C9         -3.2733    3.1186   50.0700 C.3     1  ZINC000918875053   -0.1400
     10 C10        -3.6566    3.0423   51.5315 C.2     1  ZINC000918875053    0.5300
     11 O11        -4.6280    2.4600   51.9655 O.2     1  ZINC000918875053   -0.5000
     12 N12        -2.7637    3.7135   52.2792 N.am    1  ZINC000918875053   -0.5800
     13 C13        -2.8366    3.8415   53.6719 C.ar    1  ZINC000918875053    0.1000
     14 C14        -1.9131    3.1927   54.4793 C.ar    1  ZINC000918875053   -0.0800
     15 C15        -1.9871    3.3211   55.8531 C.ar    1  ZINC000918875053   -0.1200
     16 C16        -2.9799    4.0947   56.4249 C.ar    1  ZINC000918875053   -0.0800
     17 C17        -3.9028    4.7434   55.6245 C.ar    1  ZINC000918875053   -0.1500
     18 C18        -3.8313    4.6240   54.2489 C.ar    1  ZINC000918875053    0.1100
     19 F19        -4.7323    5.2579   53.4670 F       1  ZINC000918875053   -0.1300
     20 C20        -1.7024    4.2961   51.4485 C.3     1  ZINC000918875053    0.1200
     21 C21         1.0930    1.2463   48.1481 C.2     1  ZINC000918875053    0.1800
     22 N22         1.9827    1.2198   49.1111 N.2     1  ZINC000918875053   -0.4600
     23 C23         2.5895    0.0237   49.0106 C.2     1  ZINC000918875053    0.2100
     24 C24         3.6940   -0.4931   49.8958 C.3     1  ZINC000918875053   -0.0900
     25 C25         3.6585   -1.9742   50.2782 C.3     1  ZINC000918875053   -0.1600
     26 C26         4.6982   -1.4674   49.2767 C.3     1  ZINC000918875053   -0.1500
     27 N27         2.0480   -0.6044   48.0102 N.2     1  ZINC000918875053   -0.3700
     28 O28         1.1821    0.0783   47.5048 O.3     1  ZINC000918875053    0.1000
     29 H29        -1.5742    2.7179   46.5813 H       1  ZINC000918875053    0.0900
     30 H30        -0.3830    1.5851   45.8986 H       1  ZINC000918875053    0.0900
     31 H31        -1.4499    1.0627   47.2241 H       1  ZINC000918875053    0.0800
     32 H32        -4.1466    3.3436   49.4578 H       1  ZINC000918875053    0.1300
     33 H33        -2.8105    2.1858   49.7479 H       1  ZINC000918875053    0.1100
     34 H34        -1.1372    2.5874   54.0342 H       1  ZINC000918875053    0.1400
     35 H35        -1.2682    2.8161   56.4813 H       1  ZINC000918875053    0.1400
     36 H36        -3.0353    4.1924   57.4990 H       1  ZINC000918875053    0.1400
     37 H37        -4.6772    5.3470   56.0743 H       1  ZINC000918875053    0.1400
     38 H38        -0.7979    3.6913   51.5133 H       1  ZINC000918875053    0.1000
     39 H39        -1.4962    5.3192   51.7627 H       1  ZINC000918875053    0.1000
     40 H40         4.0682    0.2101   50.6398 H       1  ZINC000918875053    0.1400
     41 H41         4.0092   -2.2456   51.2739 H       1  ZINC000918875053    0.1100
     42 H42         2.8361   -2.5747   49.8893 H       1  ZINC000918875053    0.1000
     43 H43         4.5599   -1.7344   48.2290 H       1  ZINC000918875053    0.1000
     44 H44         5.7329   -1.4053   49.6136 H       1  ZINC000918875053    0.1100
@<TRIPOS>BOND
     1     1     2    1
     2     1    29    1
     3     1    30    1
     4     1    31    1
     5     2     3    1
     6     2     4    1
     7     2    21    1
     8     4     5    1
     9     5     6    2
    10     5     7    1
    11     7     8    1
    12     7    20    1
    13     7     9    1
    14     9    10    1
    15     9    32    1
    16     9    33    1
    17    10    11    2
    18    10    12   am
    19    12    13    1
    20    12    20    1
    21    13    18   ar
    22    13    14   ar
    23    14    15   ar
    24    14    34    1
    25    15    16   ar
    26    15    35    1
    27    16    17   ar
    28    16    36    1
    29    17    18   ar
    30    17    37    1
    31    18    19    1
    32    20    38    1
    33    20    39    1
    34    21    28    1
    35    21    22    2
    36    22    23    1
    37    23    24    1
    38    23    27    2
    39    24    26    1
    40    24    25    1
    41    24    40    1
    42    25    26    1
    43    25    41    1
    44    25    42    1
    45    26    43    1
    46    26    44    1
    47    27    28    1
@<TRIPOS>SUBSTRUCTURE
     1 ZINC000918875053        1 TEMP              0 ****  ****    0 ROOT


##########                                Name:    ZINC000438893617
##########                DOCK_Rotatable_Bonds:                   5
##########                         Heavy_Atoms:                  29
##########                    Molecular_Weight:             412.596
##########                DOCK_Rotatable_Bonds:                   5
##########                       Formal_Charge:           0.0600001
##########                     HBond_Acceptors:                   5
##########                        HBond_Donors:                   0
##########                         Heavy_Atoms:                  29
##########                          Grid_Score:          -29.030167
##########                     Grid_vdw_energy:          -27.160580
##########                      Grid_es_energy:           -1.869588
##########           Internal_energy_repulsive:          172.159851

@<TRIPOS>MOLECULE
ZINC000438893617
 61 66 1 0 0
SMALL
USER_CHARGES


@<TRIPOS>ATOM
      1 C1         -7.1791   -0.4347   52.5081 C.3     1  ZINC000438893617   -0.1000
      2 C2         -8.5396    0.1980   52.6476 C.2     1  ZINC000438893617   -0.0900
      3 C3         -8.7222    1.3868   53.2244 C.2     1  ZINC000438893617   -0.1600
      4 C4         -7.6300    2.2482   53.8041 C.3     1  ZINC000438893617   -0.0400
      5 H5         -6.6345    1.8042   53.8101 H       1  ZINC000438893617    0.1400
      6 C6         -7.9997    3.1696   54.9682 C.3     1  ZINC000438893617   -0.1400
      7 C7         -7.7285    3.7587   53.5817 C.3     1  ZINC000438893617   -0.1800
      8 H8         -8.5834    4.1296   53.0165 H       1  ZINC000438893617    0.1300
      9 C9         -6.4420    4.5195   53.3884 C.2     1  ZINC000438893617    0.5500
     10 O10        -6.0945    5.3416   54.2096 O.2     1  ZINC000438893617   -0.5300
     11 N11        -5.6778    4.2863   52.3030 N.am    1  ZINC000438893617   -0.6100
     12 C12        -4.4187    5.0174   52.1037 C.3     1  ZINC000438893617    0.0900
     13 C13        -3.2844    4.0006   51.9257 C.3     1  ZINC000438893617    0.1000
     14 N14        -3.6950    3.0100   50.9208 N.am    1  ZINC000438893617   -0.6100
     15 C15        -2.9303    2.7760   49.8359 C.2     1  ZINC000438893617    0.5300
     16 O16        -3.2795    1.9561   49.0132 O.2     1  ZINC000438893617   -0.5300
     17 C17        -1.6414    3.5333   49.6450 C.3     1  ZINC000438893617   -0.0700
     18 C18        -0.9488    3.0481   48.3700 C.3     1  ZINC000438893617   -0.1100
     19 C19         0.3597    3.8169   48.1762 C.3     1  ZINC000438893617   -0.0800
     20 C20         1.2758    3.5754   49.3777 C.3     1  ZINC000438893617   -0.1100
     21 C21         0.5832    4.0607   50.6527 C.3     1  ZINC000438893617   -0.0800
     22 C22         0.2831    5.5561   50.5327 C.3     1  ZINC000438893617   -0.1100
     23 C23        -0.6330    5.7976   49.3312 C.3     1  ZINC000438893617   -0.0900
     24 C24         0.0597    5.3124   48.0561 C.3     1  ZINC000438893617   -0.1100
     25 C25        -1.9415    5.0287   49.5248 C.3     1  ZINC000438893617   -0.0900
     26 C26        -0.7253    3.2918   50.8465 C.3     1  ZINC000438893617   -0.1200
     27 C27        -4.9541    2.2788   51.1201 C.3     1  ZINC000438893617    0.0700
     28 C28        -6.0857    3.2917   51.3009 C.3     1  ZINC000438893617    0.1000
     29 S29       -10.4328    1.7955   53.2044 S.3     1  ZINC000438893617    0.1000
     30 C30       -10.8151    0.2843   52.3897 C.2     1  ZINC000438893617   -0.2100
     31 C31        -9.6939   -0.4077   52.1818 C.2     1  ZINC000438893617   -0.1300
     32 H32        -6.7284   -0.1232   51.5658 H       1  ZINC000438893617    0.0700
     33 H33        -6.5447   -0.1188   53.3362 H       1  ZINC000438893617    0.0700
     34 H34        -7.2800   -1.5200   52.5212 H       1  ZINC000438893617    0.0700
     35 H35        -9.0329    3.1527   55.3149 H       1  ZINC000438893617    0.1100
     36 H36        -7.2472    3.3321   55.7400 H       1  ZINC000438893617    0.1100
     37 H37        -4.4946    5.6404   51.2125 H       1  ZINC000438893617    0.0800
     38 H38        -4.2167    5.6422   52.9737 H       1  ZINC000438893617    0.1000
     39 H39        -2.3835    4.5128   51.5877 H       1  ZINC000438893617    0.1100
     40 H40        -3.0895    3.5002   52.8743 H       1  ZINC000438893617    0.0700
     41 H41        -0.7350    1.9827   48.4556 H       1  ZINC000438893617    0.0800
     42 H42        -1.6014    3.2201   47.5140 H       1  ZINC000438893617    0.0700
     43 H43         0.8532    3.4711   47.2679 H       1  ZINC000438893617    0.0800
     44 H44         1.4896    2.5100   49.4633 H       1  ZINC000438893617    0.0600
     45 H45         2.2080    4.1231   49.2397 H       1  ZINC000438893617    0.0700
     46 H46         1.2358    3.8887   51.5086 H       1  ZINC000438893617    0.0800
     47 H47        -0.2103    5.9018   51.4410 H       1  ZINC000438893617    0.0600
     48 H48         1.2153    6.1038   50.3947 H       1  ZINC000438893617    0.0700
     49 H49        -0.8468    6.8630   49.2456 H       1  ZINC000438893617    0.0700
     50 H50         0.9919    5.8601   47.9181 H       1  ZINC000438893617    0.0700
     51 H51        -0.5929    5.4844   47.2002 H       1  ZINC000438893617    0.0600
     52 H52        -2.5941    5.2007   48.6689 H       1  ZINC000438893617    0.0700
     53 H53        -2.4350    5.3744   50.4333 H       1  ZINC000438893617    0.0700
     54 H54        -1.2188    3.6376   51.7548 H       1  ZINC000438893617    0.0700
     55 H55        -0.5116    2.2265   50.9321 H       1  ZINC000438893617    0.0800
     56 H56        -5.1561    1.6541   50.2501 H       1  ZINC000438893617    0.1300
     57 H57        -4.8782    1.6558   52.0113 H       1  ZINC000438893617    0.0800
     58 H58        -6.9858    2.7781   51.6388 H       1  ZINC000438893617    0.1100
     59 H59        -6.2819    3.7939   50.3536 H       1  ZINC000438893617    0.0700
     60 H60       -11.8055   -0.0326   52.0983 H       1  ZINC000438893617    0.1700
     61 H61        -9.6880   -1.3713   51.6941 H       1  ZINC000438893617    0.1400
@<TRIPOS>BOND
     1     1     2    1
     2     1    32    1
     3     1    33    1
     4     1    34    1
     5     2    31    1
     6     2     3    2
     7     3     4    1
     8     3    29    1
     9     4     5    1
    10     4     7    1
    11     4     6    1
    12     6     7    1
    13     6    35    1
    14     6    36    1
    15     7     8    1
    16     7     9    1
    17     9    10    2
    18     9    11   am
    19    11    28    1
    20    11    12    1
    21    12    13    1
    22    12    37    1
    23    12    38    1
    24    13    14    1
    25    13    39    1
    26    13    40    1
    27    14    15   am
    28    14    27    1
    29    15    16    2
    30    15    17    1
    31    17    25    1
    32    17    26    1
    33    17    18    1
    34    18    19    1
    35    18    41    1
    36    18    42    1
    37    19    24    1
    38    19    20    1
    39    19    43    1
    40    20    21    1
    41    20    44    1
    42    20    45    1
    43    21    22    1
    44    21    26    1
    45    21    46    1
    46    22    23    1
    47    22    47    1
    48    22    48    1
    49    23    24    1
    50    23    25    1
    51    23    49    1
    52    24    50    1
    53    24    51    1
    54    25    52    1
    55    25    53    1
    56    26    54    1
    57    26    55    1
    58    27    28    1
    59    27    56    1
    60    27    57    1
    61    28    58    1
    62    28    59    1
    63    29    30    1
    64    30    31    2
    65    30    60    1
    66    31    61    1
@<TRIPOS>SUBSTRUCTURE
     1 ZINC000438893617        1 TEMP              0 ****  ****    0 ROOT


##########                                Name:    ZINC000074782190
##########                DOCK_Rotatable_Bonds:                   9
##########                         Heavy_Atoms:                  25
##########                    Molecular_Weight:             341.453
##########                DOCK_Rotatable_Bonds:                   9
##########                       Formal_Charge:          -0.0200006
##########                     HBond_Acceptors:                   5
##########                        HBond_Donors:                   1
##########                         Heavy_Atoms:                  25
##########                          Grid_Score:          -29.023233
##########                     Grid_vdw_energy:          -28.567411
##########                      Grid_es_energy:           -0.455822
##########           Internal_energy_repulsive:           23.124226

@<TRIPOS>MOLECULE
ZINC000074782190
 52 53 1 0 0
SMALL
USER_CHARGES


@<TRIPOS>ATOM
      1 C1         -6.4287    3.6110   53.6411 C.3     1  ZINC000074782190   -0.1100
      2 C2         -6.4421    2.4763   52.6495 C.ar    1  ZINC000074782190   -0.1200
      3 C3         -7.2494    1.3770   52.8680 C.ar    1  ZINC000074782190   -0.0800
      4 C4         -7.2617    0.3351   51.9588 C.ar    1  ZINC000074782190   -0.1500
      5 C5         -6.4669    0.3911   50.8291 C.ar    1  ZINC000074782190   -0.0900
      6 C6         -5.6581    1.4887   50.6057 C.ar    1  ZINC000074782190   -0.2100
      7 C7         -5.6478    2.5374   51.5135 C.ar    1  ZINC000074782190    0.1300
      8 O8         -4.8530    3.6182   51.2961 O.3     1  ZINC000074782190   -0.3000
      9 C9         -3.4500    3.3771   51.1719 C.3     1  ZINC000074782190    0.0700
     10 H10        -3.2548    2.3091   51.2689 H       1  ZINC000074782190    0.0800
     11 C11        -2.7030    4.1340   52.2718 C.3     1  ZINC000074782190   -0.1800
     12 C12        -2.9687    3.8611   49.8026 C.3     1  ZINC000074782190    0.1400
     13 N13        -1.5793    3.4443   49.5980 N.am    1  ZINC000074782190   -0.7500
     14 C14        -1.2711    2.5928   48.5996 C.2     1  ZINC000074782190    0.7100
     15 O15        -2.1463    2.1706   47.8689 O.2     1  ZINC000074782190   -0.5900
     16 N16         0.0071    2.2094   48.4114 N.am    1  ZINC000074782190   -0.6200
     17 C17         0.3421    1.2840   47.3262 C.3     1  ZINC000074782190    0.1800
     18 C18         0.8696    2.0613   46.1479 C.ar    1  ZINC000074782190   -0.1600
     19 C19         0.0371    2.9145   45.4403 C.ar    1  ZINC000074782190   -0.0500
     20 C20         0.5660    3.6099   44.3634 C.ar    1  ZINC000074782190   -0.1800
     21 C21         1.8960    3.4306   44.0337 C.ar    1  ZINC000074782190    0.1000
     22 N22         2.6588    2.6102   44.7298 N.ar    1  ZINC000074782190   -0.4900
     23 C23         2.1913    1.9370   45.7625 C.ar    1  ZINC000074782190    0.1100
     24 C24         1.0617    2.7182   49.2919 C.3     1  ZINC000074782190    0.1300
     25 C25         2.1293    1.6393   49.4852 C.3     1  ZINC000074782190   -0.1800
     26 C26         1.6983    3.9584   48.6615 C.3     1  ZINC000074782190   -0.1800
     27 H27        -7.1917    4.3404   53.3689 H       1  ZINC000074782190    0.0700
     28 H28        -6.6354    3.2241   54.6390 H       1  ZINC000074782190    0.0600
     29 H29        -5.4494    4.0895   53.6326 H       1  ZINC000074782190    0.0700
     30 H30        -7.8712    1.3310   53.7499 H       1  ZINC000074782190    0.1300
     31 H31        -7.8931   -0.5239   52.1318 H       1  ZINC000074782190    0.1200
     32 H32        -6.4781   -0.4241   50.1206 H       1  ZINC000074782190    0.1200
     33 H33        -5.0371    1.5318   49.7231 H       1  ZINC000074782190    0.1300
     34 H34        -2.8982    5.2020   52.1748 H       1  ZINC000074782190    0.0700
     35 H35        -3.0459    3.7892   53.2474 H       1  ZINC000074782190    0.0700
     36 H36        -1.6329    3.9501   52.1771 H       1  ZINC000074782190    0.0800
     37 H37        -3.5962    3.4287   49.0233 H       1  ZINC000074782190    0.0800
     38 H38        -3.0322    4.9484   49.7586 H       1  ZINC000074782190    0.0900
     39 H39        -0.8810    3.7812   50.1809 H       1  ZINC000074782190    0.4100
     40 H40         1.1027    0.5825   47.6688 H       1  ZINC000074782190    0.0900
     41 H41        -0.5511    0.7346   47.0285 H       1  ZINC000074782190    0.1000
     42 H42        -0.9989    3.0345   45.7208 H       1  ZINC000074782190    0.1400
     43 H43        -0.0538    4.2827   43.7894 H       1  ZINC000074782190    0.1300
     44 H44         2.3154    3.9681   43.1962 H       1  ZINC000074782190    0.1600
     45 H45         2.8464    1.2743   46.3085 H       1  ZINC000074782190    0.1500
     46 H46         0.6323    2.9817   50.2585 H       1  ZINC000074782190    0.1000
     47 H47         2.6213    1.4404   48.5332 H       1  ZINC000074782190    0.0600
     48 H48         2.8666    1.9835   50.2105 H       1  ZINC000074782190    0.0700
     49 H49         1.6602    0.7253   49.8497 H       1  ZINC000074782190    0.0600
     50 H50         0.9668    4.7659   48.6296 H       1  ZINC000074782190    0.0700
     51 H51         2.5566    4.2689   49.2573 H       1  ZINC000074782190    0.0700
     52 H52         2.0251    3.7238   47.6483 H       1  ZINC000074782190    0.0700
@<TRIPOS>BOND
     1     1     2    1
     2     1    27    1
     3     1    28    1
     4     1    29    1
     5     2     7   ar
     6     2     3   ar
     7     3     4   ar
     8     3    30    1
     9     4     5   ar
    10     4    31    1
    11     5     6   ar
    12     5    32    1
    13     6     7   ar
    14     6    33    1
    15     7     8    1
    16     8     9    1
    17     9    10    1
    18     9    11    1
    19     9    12    1
    20    11    34    1
    21    11    35    1
    22    11    36    1
    23    12    13    1
    24    12    37    1
    25    12    38    1
    26    13    14   am
    27    13    39    1
    28    14    15    2
    29    14    16   am
    30    16    17    1
    31    16    24    1
    32    17    18    1
    33    17    40    1
    34    17    41    1
    35    18    23   ar
    36    18    19   ar
    37    19    20   ar
    38    19    42    1
    39    20    21   ar
    40    20    43    1
    41    21    22   ar
    42    21    44    1
    43    22    23   ar
    44    23    45    1
    45    24    25    1
    46    24    26    1
    47    24    46    1
    48    25    47    1
    49    25    48    1
    50    25    49    1
    51    26    50    1
    52    26    51    1
    53    26    52    1
@<TRIPOS>SUBSTRUCTURE
     1 ZINC000074782190        1 TEMP              0 ****  ****    0 ROOT


##########                                Name:    ZINC000279331220
##########                DOCK_Rotatable_Bonds:                   9
##########                         Heavy_Atoms:                  24
##########                    Molecular_Weight:             328.411
##########                DOCK_Rotatable_Bonds:                   9
##########                       Formal_Charge:          -0.0100001
##########                     HBond_Acceptors:                   5
##########                        HBond_Donors:                   0
##########                         Heavy_Atoms:                  24
##########                          Grid_Score:          -29.008034
##########                     Grid_vdw_energy:          -28.358782
##########                      Grid_es_energy:           -0.649252
##########           Internal_energy_repulsive:           20.678885

@<TRIPOS>MOLECULE
ZINC000279331220
 48 49 1 0 0
SMALL
USER_CHARGES


@<TRIPOS>ATOM
      1 C1          3.1800   -1.9277   50.0752 C.3     1  ZINC000279331220   -0.1500
      2 C2          3.7152   -1.2802   48.7965 C.3     1  ZINC000279331220    0.0500
      3 O3          2.7260   -0.4010   48.2577 O.3     1  ZINC000279331220   -0.3000
      4 C4          3.0653    0.3019   47.1441 C.ar    1  ZINC000279331220    0.1000
      5 C5          4.3238    0.1516   46.5850 C.ar    1  ZINC000279331220   -0.1700
      6 C6          4.6671    0.8666   45.4523 C.ar    1  ZINC000279331220   -0.1200
      7 C7          3.7571    1.7325   44.8757 C.ar    1  ZINC000279331220   -0.1200
      8 C8          2.4993    1.8876   45.4290 C.ar    1  ZINC000279331220   -0.1700
      9 C9          2.1468    1.1696   46.5600 C.ar    1  ZINC000279331220    0.1000
     10 O10         0.9103    1.3210   47.1053 O.3     1  ZINC000279331220   -0.3000
     11 C11         0.0639    2.3169   46.5277 C.3     1  ZINC000279331220    0.0600
     12 C12        -1.3027    2.2860   47.2147 C.3     1  ZINC000279331220   -0.1100
     13 C13        -1.1337    2.6058   48.7013 C.3     1  ZINC000279331220   -0.1300
     14 C14        -2.4885    2.6767   49.3572 C.2     1  ZINC000279331220    0.5200
     15 O15        -3.4893    2.4633   48.7063 O.2     1  ZINC000279331220   -0.5200
     16 N16        -2.5882    2.9771   50.6672 N.am    1  ZINC000279331220   -0.5700
     17 C17        -1.3794    3.2366   51.4532 C.3     1  ZINC000279331220    0.0800
     18 C18        -3.8415    3.0410   51.2744 C.ar    1  ZINC000279331220    0.3400
     19 N19        -4.4911    1.9231   51.5566 N.ar    1  ZINC000279331220   -0.4800
     20 C20        -5.6789    1.9390   52.1308 C.ar    1  ZINC000279331220    0.1100
     21 C21        -6.2903    3.1324   52.4598 C.ar    1  ZINC000279331220   -0.1600
     22 C22        -5.6419    4.3280   52.1804 C.ar    1  ZINC000279331220   -0.0700
     23 C23        -4.3949    4.2787   51.5830 C.ar    1  ZINC000279331220   -0.1200
     24 C24        -3.6517    5.5494   51.2607 C.3     1  ZINC000279331220   -0.1100
     25 H25         3.9345   -2.5983   50.4861 H       1  ZINC000279331220    0.0800
     26 H26         2.9469   -1.1522   50.8049 H       1  ZINC000279331220    0.0700
     27 H27         2.2772   -2.4937   49.8455 H       1  ZINC000279331220    0.0700
     28 H28         4.6180   -0.7142   49.0261 H       1  ZINC000279331220    0.0600
     29 H29         3.9483   -2.0556   48.0666 H       1  ZINC000279331220    0.0600
     30 H30         5.0369   -0.5239   47.0340 H       1  ZINC000279331220    0.1300
     31 H31         5.6486    0.7485   45.0174 H       1  ZINC000279331220    0.1300
     32 H32         4.0292    2.2895   43.9913 H       1  ZINC000279331220    0.1300
     33 H33         1.7904    2.5654   44.9768 H       1  ZINC000279331220    0.1300
     34 H34         0.5157    3.2998   46.6615 H       1  ZINC000279331220    0.0600
     35 H35        -0.0598    2.1158   45.4635 H       1  ZINC000279331220    0.0600
     36 H36        -1.9571    3.0271   46.7557 H       1  ZINC000279331220    0.0800
     37 H37        -1.7426    1.2948   47.1041 H       1  ZINC000279331220    0.0800
     38 H38        -0.5406    1.8241   49.1760 H       1  ZINC000279331220    0.1000
     39 H39        -0.6262    3.5642   48.8113 H       1  ZINC000279331220    0.1000
     40 H40        -1.0889    4.2809   51.3389 H       1  ZINC000279331220    0.0700
     41 H41        -1.5778    3.0276   52.5045 H       1  ZINC000279331220    0.0800
     42 H42        -0.5723    2.5943   51.1011 H       1  ZINC000279331220    0.0800
     43 H43        -6.1796    1.0066   52.3458 H       1  ZINC000279331220    0.1600
     44 H44        -7.2629    3.1360   52.9293 H       1  ZINC000279331220    0.1400
     45 H45        -6.0987    5.2748   52.4278 H       1  ZINC000279331220    0.1400
     46 H46        -2.9624    5.7830   52.0722 H       1  ZINC000279331220    0.0800
     47 H47        -3.0917    5.4179   50.3349 H       1  ZINC000279331220    0.0700
     48 H48        -4.3634    6.3664   51.1421 H       1  ZINC000279331220    0.0700
@<TRIPOS>BOND
     1     1     2    1
     2     1    25    1
     3     1    26    1
     4     1    27    1
     5     2     3    1
     6     2    28    1
     7     2    29    1
     8     3     4    1
     9     4     9   ar
    10     4     5   ar
    11     5     6   ar
    12     5    30    1
    13     6     7   ar
    14     6    31    1
    15     7     8   ar
    16     7    32    1
    17     8     9   ar
    18     8    33    1
    19     9    10    1
    20    10    11    1
    21    11    12    1
    22    11    34    1
    23    11    35    1
    24    12    13    1
    25    12    36    1
    26    12    37    1
    27    13    14    1
    28    13    38    1
    29    13    39    1
    30    14    15    2
    31    14    16   am
    32    16    17    1
    33    16    18    1
    34    17    40    1
    35    17    41    1
    36    17    42    1
    37    18    23   ar
    38    18    19   ar
    39    19    20   ar
    40    20    21   ar
    41    20    43    1
    42    21    22   ar
    43    21    44    1
    44    22    23   ar
    45    22    45    1
    46    23    24    1
    47    24    46    1
    48    24    47    1
    49    24    48    1
@<TRIPOS>SUBSTRUCTURE
     1 ZINC000279331220        1 TEMP              0 ****  ****    0 ROOT


##########                                Name:    ZINC000949401225
##########                DOCK_Rotatable_Bonds:                   7
##########                         Heavy_Atoms:                  24
##########                    Molecular_Weight:             332.403
##########                DOCK_Rotatable_Bonds:                   7
##########                       Formal_Charge:                0.03
##########                     HBond_Acceptors:                   7
##########                        HBond_Donors:                   1
##########                         Heavy_Atoms:                  24
##########                          Grid_Score:          -29.006485
##########                     Grid_vdw_energy:          -27.559177
##########                      Grid_es_energy:           -1.447308
##########           Internal_energy_repulsive:           12.629356

@<TRIPOS>MOLECULE
ZINC000949401225
 48 50 1 0 0
SMALL
USER_CHARGES


@<TRIPOS>ATOM
      1 C1          0.4386    3.0122   45.2956 C.3     1  ZINC000949401225    0.0700
      2 N2         -0.2388    3.3731   46.5434 N.pl3   1  ZINC000949401225   -0.4500
      3 C3          0.1320    4.3985   47.3636 C.2     1  ZINC000949401225   -0.0100
      4 C4         -0.7079    4.4412   48.4131 C.2     1  ZINC000949401225   -0.1700
      5 C5         -1.6700    3.3516   48.2160 C.2     1  ZINC000949401225   -0.2400
      6 C6         -2.7903    2.9892   49.1005 C.2     1  ZINC000949401225    0.5900
      7 O7         -3.4947    2.0353   48.8301 O.2     1  ZINC000949401225   -0.5500
      8 N8         -3.0350    3.7147   50.2097 N.am    1  ZINC000949401225   -0.7300
      9 C9         -4.1483    3.3532   51.0906 C.3     1  ZINC000949401225    0.1200
     10 C10        -3.7976    3.7220   52.5335 C.3     1  ZINC000949401225    0.1200
     11 H11        -3.1162    3.0086   52.9969 H       1  ZINC000949401225    0.1000
     12 C12        -3.3596    5.1835   52.7016 C.3     1  ZINC000949401225   -0.1500
     13 C13        -4.1760    5.0921   53.9983 C.3     1  ZINC000949401225    0.1000
     14 N14        -4.9732    4.0316   53.3612 N.am    1  ZINC000949401225   -0.6400
     15 C15        -6.2284    3.5558   53.4819 C.2     1  ZINC000949401225    0.5500
     16 O16        -6.9883    4.0475   54.2891 O.2     1  ZINC000949401225   -0.5200
     17 C17        -6.6875    2.4127   52.6138 C.3     1  ZINC000949401225   -0.1400
     18 C18        -7.8177    1.6594   53.3182 C.3     1  ZINC000949401225    0.1500
     19 H19        -7.5645    1.4935   54.3654 H       1  ZINC000949401225    0.0900
     20 C20        -9.1390    2.4521   53.2069 C.3     1  ZINC000949401225   -0.1200
     21 C21       -10.1781    1.3152   53.0699 C.3     1  ZINC000949401225   -0.1600
     22 C22        -9.3888    0.1580   52.4986 C.2     1  ZINC000949401225    0.5200
     23 O23        -9.8741   -0.8262   51.9823 O.2     1  ZINC000949401225   -0.5300
     24 N24        -8.0697    0.3786   52.6475 N.am    1  ZINC000949401225   -0.6200
     25 C25        -7.0218   -0.5402   52.1958 C.3     1  ZINC000949401225    0.0900
     26 C26        -1.3200    2.7438   47.0418 C.2     1  ZINC000949401225    0.0800
     27 H27        -0.0059    3.5648   44.4679 H       1  ZINC000949401225    0.0800
     28 H28         1.4971    3.2612   45.3717 H       1  ZINC000949401225    0.0900
     29 H29         0.3289    1.9422   45.1188 H       1  ZINC000949401225    0.0900
     30 H30         0.9639    5.0667   47.1972 H       1  ZINC000949401225    0.1700
     31 H31        -0.6794    5.1386   49.2372 H       1  ZINC000949401225    0.1500
     32 H32        -2.4740    4.4761   50.4247 H       1  ZINC000949401225    0.4000
     33 H33        -5.0440    3.8939   50.7848 H       1  ZINC000949401225    0.0700
     34 H34        -4.3310    2.2806   51.0239 H       1  ZINC000949401225    0.0900
     35 H35        -2.2886    5.3141   52.8561 H       1  ZINC000949401225    0.1000
     36 H36        -3.7761    5.8632   51.9583 H       1  ZINC000949401225    0.1000
     37 H37        -3.5958    4.7436   54.8528 H       1  ZINC000949401225    0.0900
     38 H38        -4.7476    5.9943   54.2159 H       1  ZINC000949401225    0.0800
     39 H39        -7.0483    2.8016   51.6617 H       1  ZINC000949401225    0.1000
     40 H40        -5.8537    1.7335   52.4365 H       1  ZINC000949401225    0.1000
     41 H41        -9.3191    3.0386   54.1079 H       1  ZINC000949401225    0.1000
     42 H42        -9.1385    3.0889   52.3224 H       1  ZINC000949401225    0.0800
     43 H43       -10.5876    1.0530   54.0454 H       1  ZINC000949401225    0.1100
     44 H44       -10.9754    1.6075   52.3865 H       1  ZINC000949401225    0.1000
     45 H45        -7.4753   -1.3707   51.6548 H       1  ZINC000949401225    0.0800
     46 H46        -6.3333   -0.0104   51.5373 H       1  ZINC000949401225    0.0600
     47 H47        -6.4772   -0.9228   53.0589 H       1  ZINC000949401225    0.0600
     48 H48        -1.8215    1.8986   46.5939 H       1  ZINC000949401225    0.1800
@<TRIPOS>BOND
     1     1     2    1
     2     1    27    1
     3     1    28    1
     4     1    29    1
     5     2    26    1
     6     2     3    1
     7     3     4    2
     8     3    30    1
     9     4     5    1
    10     4    31    1
    11     5     6    1
    12     5    26    2
    13     6     7    2
    14     6     8   am
    15     8     9    1
    16     8    32    1
    17     9    10    1
    18     9    33    1
    19     9    34    1
    20    10    11    1
    21    10    14    1
    22    10    12    1
    23    12    13    1
    24    12    35    1
    25    12    36    1
    26    13    14    1
    27    13    37    1
    28    13    38    1
    29    14    15   am
    30    15    16    2
    31    15    17    1
    32    17    18    1
    33    17    39    1
    34    17    40    1
    35    18    19    1
    36    18    24    1
    37    18    20    1
    38    20    21    1
    39    20    41    1
    40    20    42    1
    41    21    22    1
    42    21    43    1
    43    21    44    1
    44    22    23    2
    45    22    24   am
    46    24    25    1
    47    25    45    1
    48    25    46    1
    49    25    47    1
    50    26    48    1
@<TRIPOS>SUBSTRUCTURE
     1 ZINC000949401225        1 TEMP              0 ****  ****    0 ROOT


##########                                Name:    ZINC000291036115
##########                DOCK_Rotatable_Bonds:                   5
##########                         Heavy_Atoms:                  22
##########                    Molecular_Weight:             366.193
##########                DOCK_Rotatable_Bonds:                   5
##########                       Formal_Charge:                0.01
##########                     HBond_Acceptors:                   7
##########                        HBond_Donors:                   0
##########                         Heavy_Atoms:                  22
##########                          Grid_Score:          -28.964128
##########                     Grid_vdw_energy:          -27.964827
##########                      Grid_es_energy:           -0.999301
##########           Internal_energy_repulsive:            8.474843

@<TRIPOS>MOLECULE
ZINC000291036115
 35 37 1 0 0
SMALL
USER_CHARGES


@<TRIPOS>ATOM
      1 C1          2.2237    2.8084   44.8576 C.3     1  <0>        -0.1500
      2 C2          1.1357    2.2725   45.7905 C.3     1  <0>        -0.0400
      3 H3          0.7853    1.3078   45.4235 H       1  <0>         0.0900
      4 C4         -0.0335    3.2586   45.8297 C.3     1  <0>        -0.0200
      5 C5         -0.9649    2.8887   46.9552 C.2     1  <0>         0.1900
      6 N6         -1.1444    3.5539   48.0710 N.2     1  <0>        -0.4500
      7 C7         -2.0591    2.8547   48.7661 C.2     1  <0>         0.1500
      8 C8         -2.6078    3.2075   50.1247 C.3     1  <0>         0.2300
      9 N9         -3.8864    2.5220   50.3280 N.pl3   1  <0>        -0.3900
     10 C10        -4.3198    1.9452   51.4624 C.2     1  <0>         0.2600
     11 N11        -5.5068    1.4440   51.2352 N.2     1  <0>        -0.5400
     12 C12        -5.8629    1.6799   49.9731 C.2     1  <0>         0.2000
     13 N13        -4.9054    2.3420   49.3785 N.2     1  <0>        -0.3100
     14 N14        -2.3833    1.8192   48.0511 N.2     1  <0>        -0.3600
     15 O15        -1.7701    1.8232   47.0044 O.3     1  <0>         0.0900
     16 C16         1.7003    2.1073   47.1779 C.ar    1  <0>        -0.0900
     17 C17         2.2403    3.1952   47.8377 C.ar    1  <0>        -0.0700
     18 C18         2.7581    3.0455   49.1106 C.ar    1  <0>        -0.1400
     19 C19         2.7360    1.8054   49.7250 C.ar    1  <0>         0.1300
     20 F20         3.2415    1.6581   50.9691 F       1  <0>        -0.1200
     21 C21         2.1945    0.7151   49.0629 C.ar    1  <0>        -0.1300
     22 Br22        2.1626   -0.9800   49.9002 Br      1  <0>        -0.0200
     23 C23         1.6725    0.8688   47.7919 C.ar    1  <0>        -0.0500
     24 H24         1.8154    2.9279   43.8541 H       1  <0>         0.0600
     25 H25         2.5742    3.7730   45.2246 H       1  <0>         0.0700
     26 H26         3.0567    2.1059   44.8297 H       1  <0>         0.0700
     27 H27         0.3473    4.2673   45.9898 H       1  <0>         0.1200
     28 H28        -0.5734    3.2198   44.8837 H       1  <0>         0.1100
     29 H29        -1.9017    2.8953   50.8940 H       1  <0>         0.1300
     30 H30        -2.7595    4.2851   50.1864 H       1  <0>         0.1200
     31 H31        -3.7817    1.9023   52.3979 H       1  <0>         0.2200
     32 H32        -6.7936    1.3771   49.5166 H       1  <0>         0.2200
     33 H33         2.2579    4.1628   47.3584 H       1  <0>         0.1400
     34 H34         3.1802    3.8958   49.6256 H       1  <0>         0.1500
     35 H35         1.2504    0.0195   47.2753 H       1  <0>         0.1400
@<TRIPOS>BOND
     1     1     2    1
     2     1    24    1
     3     1    25    1
     4     1    26    1
     5     2     3    1
     6     2     4    1
     7     2    16    1
     8     4     5    1
     9     4    27    1
    10     4    28    1
    11     5    15    1
    12     5     6    2
    13     6     7    1
    14     7     8    1
    15     7    14    2
    16     8     9    1
    17     8    29    1
    18     8    30    1
    19     9    13    1
    20     9    10    1
    21    10    11    2
    22    10    31    1
    23    11    12    1
    24    12    13    2
    25    12    32    1
    26    14    15    1
    27    16    23   ar
    28    16    17   ar
    29    17    18   ar
    30    17    33    1
    31    18    19   ar
    32    18    34    1
    33    19    20    1
    34    19    21   ar
    35    21    22    1
    36    21    23   ar
    37    23    35    1
@<TRIPOS>SUBSTRUCTURE
     1 <0>         1 TEMP              0 ****  ****    0 ROOT


##########                                Name:    ZINC000588570917
##########                DOCK_Rotatable_Bonds:                   7
##########                         Heavy_Atoms:                  25
##########                    Molecular_Weight:             366.481
##########                DOCK_Rotatable_Bonds:                   7
##########                       Formal_Charge:          -0.0100006
##########                     HBond_Acceptors:                   7
##########                        HBond_Donors:                   1
##########                         Heavy_Atoms:                  25
##########                          Grid_Score:          -28.963261
##########                     Grid_vdw_energy:          -28.010468
##########                      Grid_es_energy:           -0.952793
##########           Internal_energy_repulsive:           14.841804

@<TRIPOS>MOLECULE
ZINC000588570917
 51 52 1 0 0
SMALL
USER_CHARGES


@<TRIPOS>ATOM
      1 C1        -12.8204    3.0358   45.9969 C.3     1  ZINC000588570917   -0.1300
      2 C2        -12.8505    2.7481   47.4758 C.2     1  ZINC000588570917   -0.0500
      3 C3        -12.9762    1.4962   47.9074 C.2     1  ZINC000588570917   -0.2000
      4 C4        -13.0902    0.3656   46.9174 C.3     1  ZINC000588570917   -0.0900
      5 C5        -14.5671    0.0626   46.6573 C.3     1  ZINC000588570917   -0.1500
      6 C6        -13.0039    1.2152   49.3507 C.2     1  ZINC000588570917    0.5600
      7 O7        -13.0823    2.1311   50.1470 O.2     1  ZINC000588570917   -0.5100
      8 N8        -12.9425   -0.0571   49.7908 N.am    1  ZINC000588570917   -0.6800
      9 C9        -12.9689   -0.3243   51.1631 C.ar    1  ZINC000588570917    0.2100
     10 C10       -14.1834   -0.4804   51.8186 C.ar    1  ZINC000588570917   -0.1700
     11 C11       -14.2058   -0.7448   53.1740 C.ar    1  ZINC000588570917    0.0000
     12 C12       -13.0209   -0.8541   53.8784 C.ar    1  ZINC000588570917   -0.7000
     13 S13       -13.0541   -1.1915   55.6075 S.o2    1  ZINC000588570917    2.6900
     14 O14       -12.0804   -0.3433   56.2006 O.2     1  ZINC000588570917   -0.9500
     15 O15       -14.4225   -1.1904   55.9903 O.2     1  ZINC000588570917   -0.9500
     16 N16       -12.5117   -2.7425   55.8148 N.am    1  ZINC000588570917   -1.0000
     17 C17       -11.3200   -3.0255   56.6302 C.3     1  ZINC000588570917    0.0900
     18 C18       -11.6732   -4.1262   57.6369 C.3     1  ZINC000588570917    0.0700
     19 H19       -12.3927   -3.7414   58.3597 H       1  ZINC000588570917    0.0700
     20 C20       -10.4064   -4.5765   58.3673 C.3     1  ZINC000588570917   -0.1500
     21 O21       -12.2438   -5.2363   56.9398 O.3     1  ZINC000588570917   -0.3700
     22 C22       -13.4690   -4.9374   56.2666 C.3     1  ZINC000588570917    0.0800
     23 H23       -13.8582   -5.8424   55.8002 H       1  ZINC000588570917    0.1200
     24 C24       -14.4885   -4.4025   57.2742 C.3     1  ZINC000588570917   -0.1900
     25 C25       -13.2110   -3.8787   55.1943 C.3     1  ZINC000588570917    0.0900
     26 C26       -11.8100   -0.6998   53.2288 C.ar    1  ZINC000588570917    0.0000
     27 C27       -11.7804   -0.4401   51.8727 C.ar    1  ZINC000588570917   -0.1400
     28 H28       -12.7129    4.1087   45.8376 H       1  ZINC000588570917    0.0600
     29 H29       -11.9776    2.5149   45.5425 H       1  ZINC000588570917    0.0800
     30 H30       -13.7487    2.6920   45.5407 H       1  ZINC000588570917    0.0800
     31 H31       -12.7703    3.5583   48.1853 H       1  ZINC000588570917    0.1300
     32 H32       -12.6077    0.6511   45.9827 H       1  ZINC000588570917    0.0700
     33 H33       -12.6029   -0.5217   47.3216 H       1  ZINC000588570917    0.0800
     34 H34       -15.0543    0.9499   46.2531 H       1  ZINC000588570917    0.0500
     35 H35       -14.6496   -0.7551   45.9413 H       1  ZINC000588570917    0.0600
     36 H36       -15.0496   -0.2229   47.5921 H       1  ZINC000588570917    0.0600
     37 H37       -12.8800   -0.7875   49.1557 H       1  ZINC000588570917    0.4100
     38 H38       -15.1092   -0.3948   51.2691 H       1  ZINC000588570917    0.1400
     39 H39       -15.1499   -0.8660   53.6843 H       1  ZINC000588570917    0.1400
     40 H40       -10.5071   -3.3632   55.9874 H       1  ZINC000588570917    0.0900
     41 H41       -11.0171   -2.1241   57.1631 H       1  ZINC000588570917    0.1000
     42 H42        -9.9703   -3.7284   58.8950 H       1  ZINC000588570917    0.0700
     43 H43       -10.6583   -5.3591   59.0830 H       1  ZINC000588570917    0.0700
     44 H44        -9.6880   -4.9629   57.6442 H       1  ZINC000588570917    0.0700
     45 H45       -14.0993   -3.4965   57.7388 H       1  ZINC000588570917    0.0600
     46 H46       -15.4223   -4.1749   56.7601 H       1  ZINC000588570917    0.0700
     47 H47       -14.6702   -5.1550   58.0415 H       1  ZINC000588570917    0.0700
     48 H48       -14.1591   -3.5432   54.7740 H       1  ZINC000588570917    0.1000
     49 H49       -12.5877   -4.2996   54.4052 H       1  ZINC000588570917    0.0900
     50 H50       -10.8863   -0.7857   53.7818 H       1  ZINC000588570917    0.1400
     51 H51       -10.8343   -0.3199   51.3658 H       1  ZINC000588570917    0.1500
@<TRIPOS>BOND
     1     1     2    1
     2     1    28    1
     3     1    29    1
     4     1    30    1
     5     2     3    2
     6     2    31    1
     7     3     4    1
     8     3     6    1
     9     4     5    1
    10     4    32    1
    11     4    33    1
    12     5    34    1
    13     5    35    1
    14     5    36    1
    15     6     7    2
    16     6     8   am
    17     8     9    1
    18     8    37    1
    19     9    27   ar
    20     9    10   ar
    21    10    11   ar
    22    10    38    1
    23    11    12   ar
    24    11    39    1
    25    12    13    1
    26    12    26   ar
    27    13    14    2
    28    13    15    2
    29    13    16   am
    30    16    25    1
    31    16    17    1
    32    17    18    1
    33    17    40    1
    34    17    41    1
    35    18    19    1
    36    18    20    1
    37    18    21    1
    38    20    42    1
    39    20    43    1
    40    20    44    1
    41    21    22    1
    42    22    23    1
    43    22    24    1
    44    22    25    1
    45    24    45    1
    46    24    46    1
    47    24    47    1
    48    25    48    1
    49    25    49    1
    50    26    27   ar
    51    26    50    1
    52    27    51    1
@<TRIPOS>SUBSTRUCTURE
     1 ZINC000588570917        1 TEMP              0 ****  ****    0 ROOT


##########                                Name:    ZINC000986832075
##########                DOCK_Rotatable_Bonds:                   7
##########                         Heavy_Atoms:                  25
##########                    Molecular_Weight:             347.433
##########                DOCK_Rotatable_Bonds:                   7
##########                       Formal_Charge:          -0.0200006
##########                     HBond_Acceptors:                   6
##########                        HBond_Donors:                   1
##########                         Heavy_Atoms:                  25
##########                          Grid_Score:          -28.962000
##########                     Grid_vdw_energy:          -28.601151
##########                      Grid_es_energy:           -0.360849
##########           Internal_energy_repulsive:           31.633219

@<TRIPOS>MOLECULE
ZINC000986832075
 51 53 1 0 0
SMALL
USER_CHARGES


@<TRIPOS>ATOM
      1 C1         -2.2228    6.0288   50.4060 C.3     1  ZINC000986832075   -0.1700
      2 C2         -1.7802    4.5980   50.7189 C.3     1  ZINC000986832075    0.1500
      3 H3         -1.3147    4.5689   51.7040 H       1  ZINC000986832075    0.0900
      4 N4         -2.9465    3.7116   50.7036 N.am    1  ZINC000986832075   -0.7200
      5 C5         -3.8228    3.7333   51.7272 C.2     1  ZINC000986832075    0.5600
      6 O6         -3.6464    4.4891   52.6624 O.2     1  ZINC000986832075   -0.5100
      7 C7         -5.0001    2.8365   51.7126 C.ar    1  ZINC000986832075   -0.1300
      8 C8         -5.9852    2.9267   52.7014 C.ar    1  ZINC000986832075   -0.1100
      9 C9         -7.0671    2.0702   52.6495 C.ar    1  ZINC000986832075    0.0900
     10 N10        -7.1797    1.1766   51.6867 N.ar    1  ZINC000986832075   -0.4400
     11 C11        -6.2769    1.0557   50.7349 C.ar    1  ZINC000986832075    0.0700
     12 C12        -5.1623    1.8772   50.7046 C.ar    1  ZINC000986832075    0.1100
     13 F13        -4.2405    1.7477   49.7256 F       1  ZINC000986832075   -0.1000
     14 C14        -0.7729    4.1337   49.6649 C.3     1  ZINC000986832075   -0.1000
     15 C15         0.4960    3.6324   50.3584 C.3     1  ZINC000986832075   -0.1300
     16 C16         1.5153    3.2007   49.2994 C.3     1  ZINC000986832075    0.1100
     17 N17         0.8847    2.2161   48.4098 N.am    1  ZINC000986832075   -0.6100
     18 C18         1.4623    1.0179   48.1925 C.2     1  ZINC000986832075    0.5200
     19 O19         0.9318    0.2137   47.4559 O.2     1  ZINC000986832075   -0.5300
     20 C20         2.7674    0.6776   48.8647 C.3     1  ZINC000986832075   -0.0800
     21 H21         2.7447    1.0232   49.8982 H       1  ZINC000986832075    0.0900
     22 C22         3.9170    1.3625   48.1230 C.3     1  ZINC000986832075   -0.1400
     23 C23         2.9746   -0.8382   48.8383 C.3     1  ZINC000986832075   -0.1400
     24 C24         3.5896   -1.4888   50.0791 C.3     1  ZINC000986832075   -0.1800
     25 C25         2.1046   -1.6863   49.7682 C.3     1  ZINC000986832075   -0.1700
     26 C26        -0.3877    2.5624   47.7618 C.3     1  ZINC000986832075    0.1000
     27 C27        -1.3857    3.0011   48.8381 C.3     1  ZINC000986832075   -0.1300
     28 H28        -2.9404    6.3595   51.1569 H       1  ZINC000986832075    0.0600
     29 H29        -1.3549    6.6882   50.4173 H       1  ZINC000986832075    0.0700
     30 H30        -2.6883    6.0578   49.4208 H       1  ZINC000986832075    0.0600
     31 H31        -3.0881    3.1091   49.9566 H       1  ZINC000986832075    0.4000
     32 H32        -5.9006    3.6553   53.4940 H       1  ZINC000986832075    0.1500
     33 H33        -7.8323    2.1332   53.4091 H       1  ZINC000986832075    0.1700
     34 H34        -6.4098    0.3090   49.9659 H       1  ZINC000986832075    0.1800
     35 H35        -0.5228    4.9677   49.0093 H       1  ZINC000986832075    0.0800
     36 H36         0.9190    4.4326   50.9657 H       1  ZINC000986832075    0.0700
     37 H37         0.2509    2.7824   50.9953 H       1  ZINC000986832075    0.0800
     38 H38         1.8296    4.0686   48.7196 H       1  ZINC000986832075    0.0700
     39 H39         2.3806    2.7515   49.7868 H       1  ZINC000986832075    0.0900
     40 H40         3.8858    1.0852   47.0692 H       1  ZINC000986832075    0.0600
     41 H41         3.8173    2.4438   48.2173 H       1  ZINC000986832075    0.0600
     42 H42         4.8670    1.0462   48.5539 H       1  ZINC000986832075    0.0700
     43 H43         3.2338   -1.2603   47.8675 H       1  ZINC000986832075    0.1100
     44 H44         4.2537   -2.3392   49.9246 H       1  ZINC000986832075    0.1000
     45 H45         3.8466   -0.8371   50.9142 H       1  ZINC000986832075    0.0900
     46 H46         1.3846   -1.1646   50.3986 H       1  ZINC000986832075    0.0900
     47 H47         1.7917   -2.6668   49.4091 H       1  ZINC000986832075    0.1000
     48 H48        -0.2286    3.3781   47.0567 H       1  ZINC000986832075    0.0700
     49 H49        -0.7781    1.6917   47.2347 H       1  ZINC000986832075    0.0900
     50 H50        -1.6130    2.1571   49.4893 H       1  ZINC000986832075    0.0800
     51 H51        -2.3019    3.3520   48.3632 H       1  ZINC000986832075    0.0800
@<TRIPOS>BOND
     1     1     2    1
     2     1    28    1
     3     1    29    1
     4     1    30    1
     5     2     3    1
     6     2     4    1
     7     2    14    1
     8     4     5   am
     9     4    31    1
    10     5     6    2
    11     5     7    1
    12     7    12   ar
    13     7     8   ar
    14     8     9   ar
    15     8    32    1
    16     9    10   ar
    17     9    33    1
    18    10    11   ar
    19    11    12   ar
    20    11    34    1
    21    12    13    1
    22    14    27    1
    23    14    15    1
    24    14    35    1
    25    15    16    1
    26    15    36    1
    27    15    37    1
    28    16    17    1
    29    16    38    1
    30    16    39    1
    31    17    18   am
    32    17    26    1
    33    18    19    2
    34    18    20    1
    35    20    21    1
    36    20    22    1
    37    20    23    1
    38    22    40    1
    39    22    41    1
    40    22    42    1
    41    23    25    1
    42    23    24    1
    43    23    43    1
    44    24    25    1
    45    24    44    1
    46    24    45    1
    47    25    46    1
    48    25    47    1
    49    26    27    1
    50    26    48    1
    51    26    49    1
    52    27    50    1
    53    27    51    1
@<TRIPOS>SUBSTRUCTURE
     1 ZINC000986832075        1 TEMP              0 ****  ****    0 ROOT


##########                                Name:    ZINC000119180466
##########                DOCK_Rotatable_Bonds:                  10
##########                         Heavy_Atoms:                  23
##########                    Molecular_Weight:             350.405
##########                DOCK_Rotatable_Bonds:                  10
##########                       Formal_Charge:           0.0299997
##########                     HBond_Acceptors:                   8
##########                        HBond_Donors:                   3
##########                         Heavy_Atoms:                  23
##########                          Grid_Score:          -28.960474
##########                     Grid_vdw_energy:          -28.855299
##########                      Grid_es_energy:           -0.105174
##########           Internal_energy_repulsive:           15.259441

@<TRIPOS>MOLECULE
ZINC000119180466
 44 44 1 0 0
SMALL
USER_CHARGES


@<TRIPOS>ATOM
      1 C1          4.7501   -1.5213   50.8326 C.3     1  ZINC000119180466   -0.1300
      2 S2          4.6815   -0.2138   49.5771 S.3     1  ZINC000119180466   -0.2200
      3 C3          2.8999    0.0447   49.3541 C.3     1  ZINC000119180466   -0.0700
      4 H4          2.4619    0.3853   50.2923 H       1  ZINC000119180466    0.1100
      5 C5          2.2426   -1.2709   48.9323 C.3     1  ZINC000119180466    0.0800
      6 O6          1.7897   -1.9707   50.0931 O.3     1  ZINC000119180466   -0.5600
      7 C7          2.6695    1.1002   48.2707 C.3     1  ZINC000119180466    0.1900
      8 H8          3.2495    1.9931   48.5042 H       1  ZINC000119180466    0.1000
      9 C9          3.1117    0.5450   46.9154 C.3     1  ZINC000119180466   -0.1700
     10 N10         1.2461    1.4426   48.2175 N.am    1  ZINC000119180466   -0.7200
     11 C11         0.7391    2.3517   49.0736 C.2     1  ZINC000119180466    0.7100
     12 O12         1.4635    2.8889   49.8892 O.2     1  ZINC000119180466   -0.6000
     13 N13        -0.5707    2.6655   49.0257 N.am    1  ZINC000119180466   -0.7400
     14 C14        -1.1214    3.6550   49.9551 C.3     1  ZINC000119180466    0.2000
     15 H15        -0.4677    3.7415   50.8230 H       1  ZINC000119180466    0.1000
     16 C16        -1.2217    5.0118   49.2550 C.3     1  ZINC000119180466   -0.1600
     17 C17        -2.4927    3.2170   50.4007 C.ar    1  ZINC000119180466   -0.0600
     18 C18        -2.8729    3.3719   51.7207 C.ar    1  ZINC000119180466   -0.1100
     19 C19        -4.1309    2.9699   52.1293 C.ar    1  ZINC000119180466   -0.0600
     20 C20        -5.0087    2.4136   51.2178 C.ar    1  ZINC000119180466   -0.1800
     21 C21        -6.3798    1.9749   51.6634 C.3     1  ZINC000119180466    0.5100
     22 F22        -6.7197    2.6381   52.8475 F       1  ZINC000119180466   -0.1800
     23 F23        -7.3147    2.2856   50.6702 F       1  ZINC000119180466   -0.1800
     24 F24        -6.3780    0.5938   51.8866 F       1  ZINC000119180466   -0.1800
     25 C25        -4.6291    2.2599   49.8976 C.ar    1  ZINC000119180466   -0.0600
     26 C26        -3.3725    2.6654   49.4881 C.ar    1  ZINC000119180466   -0.1100
     27 H27         4.2413   -2.4102   50.4597 H       1  ZINC000119180466    0.0800
     28 H28         5.7908   -1.7624   51.0496 H       1  ZINC000119180466    0.1000
     29 H29         4.2595   -1.1769   51.7431 H       1  ZINC000119180466    0.0800
     30 H30         1.3943   -1.0607   48.2808 H       1  ZINC000119180466    0.0500
     31 H31         2.9678   -1.8846   48.3979 H       1  ZINC000119180466    0.0600
     32 H32         1.1593   -1.4728   50.6314 H       1  ZINC000119180466    0.3800
     33 H33         2.5317   -0.3480   46.6818 H       1  ZINC000119180466    0.0700
     34 H34         2.9474    1.2970   46.1436 H       1  ZINC000119180466    0.0700
     35 H35         4.1707    0.2902   46.9550 H       1  ZINC000119180466    0.0700
     36 H36         0.6685    1.0150   47.5660 H       1  ZINC000119180466    0.4100
     37 H37        -1.1488    2.2362   48.3758 H       1  ZINC000119180466    0.4000
     38 H38        -1.6314    5.7480   49.9465 H       1  ZINC000119180466    0.0700
     39 H39        -0.2298    5.3285   48.9327 H       1  ZINC000119180466    0.0700
     40 H40        -1.8754    4.9253   48.3871 H       1  ZINC000119180466    0.0600
     41 H41        -2.1871    3.8065   52.4327 H       1  ZINC000119180466    0.1300
     42 H42        -4.4276    3.0903   53.1607 H       1  ZINC000119180466    0.1400
     43 H43        -5.3150    1.8255   49.1855 H       1  ZINC000119180466    0.1400
     44 H44        -3.0757    2.5453   48.4566 H       1  ZINC000119180466    0.1400
@<TRIPOS>BOND
     1     1     2    1
     2     1    27    1
     3     1    28    1
     4     1    29    1
     5     2     3    1
     6     3     4    1
     7     3     5    1
     8     3     7    1
     9     5     6    1
    10     5    30    1
    11     5    31    1
    12     6    32    1
    13     7     8    1
    14     7     9    1
    15     7    10    1
    16     9    33    1
    17     9    34    1
    18     9    35    1
    19    10    11   am
    20    10    36    1
    21    11    12    2
    22    11    13   am
    23    13    14    1
    24    13    37    1
    25    14    15    1
    26    14    16    1
    27    14    17    1
    28    16    38    1
    29    16    39    1
    30    16    40    1
    31    17    26   ar
    32    17    18   ar
    33    18    19   ar
    34    18    41    1
    35    19    20   ar
    36    19    42    1
    37    20    21    1
    38    20    25   ar
    39    21    22    1
    40    21    23    1
    41    21    24    1
    42    25    26   ar
    43    25    43    1
    44    26    44    1
@<TRIPOS>SUBSTRUCTURE
     1 ZINC000119180466        1 TEMP              0 ****  ****    0 ROOT


##########                                Name:    ZINC000536173632
##########                DOCK_Rotatable_Bonds:                   7
##########                         Heavy_Atoms:                  29
##########                    Molecular_Weight:             407.389
##########                DOCK_Rotatable_Bonds:                   7
##########                       Formal_Charge:        -2.98023e-07
##########                     HBond_Acceptors:                   8
##########                        HBond_Donors:                   0
##########                         Heavy_Atoms:                  29
##########                          Grid_Score:          -28.948910
##########                     Grid_vdw_energy:          -28.202429
##########                      Grid_es_energy:           -0.746480
##########           Internal_energy_repulsive:           14.719589

@<TRIPOS>MOLECULE
ZINC000536173632
 49 51 1 0 0
SMALL
USER_CHARGES


@<TRIPOS>ATOM
      1 C1        -11.4956   -3.7823   57.4758 C.3     1  ZINC000536173632    0.0400
      2 O2        -11.5786   -3.1775   56.1583 O.3     1  ZINC000536173632   -0.3500
      3 C3        -10.9109   -2.0224   55.9726 C.2     1  ZINC000536173632    0.5100
      4 O4        -10.2767   -1.5337   56.8861 O.2     1  ZINC000536173632   -0.5000
      5 C5        -10.9500   -1.3498   54.6579 C.ar    1  ZINC000536173632   -0.1300
      6 C6        -11.6553   -1.9227   53.5979 C.ar    1  ZINC000536173632   -0.0600
      7 C7        -11.6876   -1.2893   52.3727 C.ar    1  ZINC000536173632   -0.1300
      8 C8        -11.0228   -0.0894   52.1930 C.ar    1  ZINC000536173632   -0.0700
      9 C9        -10.3217    0.4839   53.2393 C.ar    1  ZINC000536173632   -0.0800
     10 C10        -9.6006    1.7913   53.0341 C.3     1  ZINC000536173632   -0.1000
     11 C11        -8.1440    1.5231   52.7559 C.2     1  ZINC000536173632    0.5200
     12 O12        -7.7445    0.3818   52.6626 O.2     1  ZINC000536173632   -0.5200
     13 N13        -7.2853    2.5517   52.6107 N.am    1  ZINC000536173632   -0.6200
     14 C14        -7.7465    3.9448   52.7197 C.3     1  ZINC000536173632    0.0700
     15 C15        -7.2440    4.7177   51.4949 C.3     1  ZINC000536173632    0.0500
     16 O16        -5.8337    4.5244   51.3625 O.3     1  ZINC000536173632   -0.3700
     17 C17        -5.4480    3.1671   51.1329 C.3     1  ZINC000536173632    0.1200
     18 H18        -5.9449    2.7939   50.2374 H       1  ZINC000536173632    0.0800
     19 C19        -3.9542    3.0928   50.9478 C.ar    1  ZINC000536173632   -0.0900
     20 C20        -3.1135    3.2918   52.0265 C.ar    1  ZINC000536173632   -0.0600
     21 C21        -1.7430    3.2237   51.8568 C.ar    1  ZINC000536173632   -0.1200
     22 C22        -1.2139    2.9560   50.6083 C.ar    1  ZINC000536173632   -0.0700
     23 C23        -2.0549    2.7559   49.5294 C.ar    1  ZINC000536173632   -0.1800
     24 C24        -1.4779    2.4645   48.1681 C.3     1  ZINC000536173632    0.5100
     25 F25        -0.2032    1.9064   48.3116 F       1  ZINC000536173632   -0.1800
     26 F26        -2.3081    1.5634   47.4928 F       1  ZINC000536173632   -0.1800
     27 F27        -1.3869    3.6531   47.4360 F       1  ZINC000536173632   -0.1800
     28 C28        -3.4249    2.8198   49.7000 C.ar    1  ZINC000536173632   -0.0500
     29 C29        -5.8575    2.3147   52.3447 C.3     1  ZINC000536173632    0.0900
     30 C30       -10.2864   -0.1355   54.4712 C.ar    1  ZINC000536173632   -0.0400
     31 H31       -10.4543   -4.0053   57.7083 H       1  ZINC000536173632    0.0600
     32 H32       -11.8938   -3.0911   58.2187 H       1  ZINC000536173632    0.0600
     33 H33       -12.0764   -4.7046   57.4894 H       1  ZINC000536173632    0.1000
     34 H34       -12.1742   -2.8597   53.7367 H       1  ZINC000536173632    0.1400
     35 H35       -12.2329   -1.7314   51.5519 H       1  ZINC000536173632    0.1400
     36 H36       -11.0508    0.4019   51.2316 H       1  ZINC000536173632    0.1300
     37 H37       -10.0407    2.3201   52.1887 H       1  ZINC000536173632    0.1100
     38 H38        -9.6925    2.4017   53.9325 H       1  ZINC000536173632    0.1100
     39 H39        -8.8359    3.9696   52.7479 H       1  ZINC000536173632    0.1000
     40 H40        -7.3450    4.3945   53.6277 H       1  ZINC000536173632    0.0800
     41 H41        -7.7474    4.3501   50.6007 H       1  ZINC000536173632    0.0600
     42 H42        -7.4556    5.7793   51.6224 H       1  ZINC000536173632    0.1100
     43 H43        -3.5270    3.5010   53.0021 H       1  ZINC000536173632    0.1400
     44 H44        -1.0860    3.3799   52.6996 H       1  ZINC000536173632    0.1400
     45 H45        -0.1433    2.9034   50.4755 H       1  ZINC000536173632    0.1400
     46 H46        -4.0820    2.6635   48.8573 H       1  ZINC000536173632    0.1400
     47 H47        -5.2642    2.6018   53.2128 H       1  ZINC000536173632    0.0800
     48 H48        -5.6972    1.2597   52.1225 H       1  ZINC000536173632    0.1100
     49 H49        -9.7392    0.3133   55.2871 H       1  ZINC000536173632    0.1400
@<TRIPOS>BOND
     1     1     2    1
     2     1    31    1
     3     1    32    1
     4     1    33    1
     5     2     3    1
     6     3     4    2
     7     3     5    1
     8     5    30   ar
     9     5     6   ar
    10     6     7   ar
    11     6    34    1
    12     7     8   ar
    13     7    35    1
    14     8     9   ar
    15     8    36    1
    16     9    10    1
    17     9    30   ar
    18    10    11    1
    19    10    37    1
    20    10    38    1
    21    11    12    2
    22    11    13   am
    23    13    29    1
    24    13    14    1
    25    14    15    1
    26    14    39    1
    27    14    40    1
    28    15    16    1
    29    15    41    1
    30    15    42    1
    31    16    17    1
    32    17    18    1
    33    17    19    1
    34    17    29    1
    35    19    28   ar
    36    19    20   ar
    37    20    21   ar
    38    20    43    1
    39    21    22   ar
    40    21    44    1
    41    22    23   ar
    42    22    45    1
    43    23    24    1
    44    23    28   ar
    45    24    25    1
    46    24    26    1
    47    24    27    1
    48    28    46    1
    49    29    47    1
    50    29    48    1
    51    30    49    1
@<TRIPOS>SUBSTRUCTURE
     1 ZINC000536173632        1 TEMP              0 ****  ****    0 ROOT


##########                                Name:    ZINC001045463759
##########                DOCK_Rotatable_Bonds:                   6
##########                         Heavy_Atoms:                  24
##########                    Molecular_Weight:             336.385
##########                DOCK_Rotatable_Bonds:                   6
##########                       Formal_Charge:          1.3411e-07
##########                     HBond_Acceptors:                   7
##########                        HBond_Donors:                   2
##########                         Heavy_Atoms:                  24
##########                          Grid_Score:          -28.946121
##########                     Grid_vdw_energy:          -28.131201
##########                      Grid_es_energy:           -0.814921
##########           Internal_energy_repulsive:            9.961168

@<TRIPOS>MOLECULE
ZINC001045463759
 46 49 1 0 0
SMALL
USER_CHARGES


@<TRIPOS>ATOM
      1 O1          2.1255   -0.1622   47.4589 O.2     1  ZINC001045463759   -0.5100
      2 C2          1.9944    0.2444   48.5940 C.2     1  ZINC001045463759    0.5400
      3 N3          1.3968    1.4311   48.8199 N.am    1  ZINC001045463759   -0.7200
      4 C4          0.9110    2.2328   47.6941 C.3     1  ZINC001045463759    0.1400
      5 H5          0.5363    1.5719   46.9125 H       1  ZINC001045463759    0.1000
      6 C6          2.0577    3.0801   47.1391 C.3     1  ZINC001045463759   -0.1300
      7 C7          1.5504    3.9173   45.9632 C.3     1  ZINC001045463759   -0.1200
      8 C8          0.4224    4.8348   46.4395 C.3     1  ZINC001045463759   -0.1200
      9 C9         -0.7242    3.9874   46.9945 C.3     1  ZINC001045463759   -0.1300
     10 C10        -0.2170    3.1502   48.1703 C.3     1  ZINC001045463759    0.1500
     11 H11         0.1579    3.8111   48.9519 H       1  ZINC001045463759    0.0900
     12 N12        -1.3149    2.3389   48.7018 N.pl3   1  ZINC001045463759   -0.7100
     13 C13        -1.8725    2.6484   49.9317 C.ar    1  ZINC001045463759    0.4400
     14 C14        -1.0645    3.0595   50.9935 C.ar    1  ZINC001045463759   -0.3000
     15 C15        -1.6681    3.3566   52.1997 C.ar    1  ZINC001045463759    0.1800
     16 N16        -2.9842    3.2429   52.3096 N.ar    1  ZINC001045463759   -0.5600
     17 C17        -3.7195    2.8521   51.2882 C.ar    1  ZINC001045463759    0.4000
     18 C18        -5.2122    2.7378   51.4613 C.3     1  ZINC001045463759   -0.1100
     19 C19        -6.0491    2.4607   50.2108 C.3     1  ZINC001045463759   -0.1500
     20 C20        -5.8440    1.3599   51.2533 C.3     1  ZINC001045463759   -0.1500
     21 N21        -3.1866    2.5638   50.1182 N.ar    1  ZINC001045463759   -0.5700
     22 C22         2.4941   -0.5803   49.7522 C.3     1  ZINC001045463759   -0.2000
     23 H23         2.4059   -0.1142   50.7336 H       1  ZINC001045463759    0.1500
     24 C24         2.3097   -2.0969   49.6711 C.3     1  ZINC001045463759   -0.1500
     25 C25         3.7030   -1.4849   49.5058 C.3     1  ZINC001045463759    0.2300
     26 F26         4.2598   -1.4838   48.2223 F       1  ZINC001045463759   -0.1400
     27 F27         4.6106   -1.6513   50.5573 F       1  ZINC001045463759   -0.1500
     28 H28         1.2884    1.7545   49.7280 H       1  ZINC001045463759    0.4000
     29 H29         2.4324    3.7409   47.9206 H       1  ZINC001045463759    0.0700
     30 H30         2.8613    2.4265   46.7996 H       1  ZINC001045463759    0.0800
     31 H31         2.3673    4.5210   45.5677 H       1  ZINC001045463759    0.0700
     32 H32         1.1756    3.2564   45.1816 H       1  ZINC001045463759    0.0700
     33 H33         0.7972    5.4956   47.2210 H       1  ZINC001045463759    0.0700
     34 H34         0.0610    5.4312   45.6018 H       1  ZINC001045463759    0.0700
     35 H35        -1.5279    4.6410   47.3338 H       1  ZINC001045463759    0.0700
     36 H36        -1.0990    3.3266   46.2129 H       1  ZINC001045463759    0.0700
     37 H37        -1.6514    1.5851   48.1926 H       1  ZINC001045463759    0.4100
     38 H38         0.0058    3.1427   50.8748 H       1  ZINC001045463759    0.1400
     39 H39        -1.0750    3.6774   53.0434 H       1  ZINC001045463759    0.1700
     40 H40        -5.6473    3.3807   52.2263 H       1  ZINC001045463759    0.1300
     41 H41        -7.0352    2.9216   50.1529 H       1  ZINC001045463759    0.1000
     42 H42        -5.5200    2.3613   49.2629 H       1  ZINC001045463759    0.1100
     43 H43        -5.1799    0.5362   50.9914 H       1  ZINC001045463759    0.1000
     44 H44        -6.6950    1.0965   51.8813 H       1  ZINC001045463759    0.1000
     45 H45         2.1007   -2.6288   50.5993 H       1  ZINC001045463759    0.1400
     46 H46         1.8271   -2.4983   48.7800 H       1  ZINC001045463759    0.1300
@<TRIPOS>BOND
     1     1     2    2
     2     2     3   am
     3     2    22    1
     4     3     4    1
     5     3    28    1
     6     4     5    1
     7     4    10    1
     8     4     6    1
     9     6     7    1
    10     6    29    1
    11     6    30    1
    12     7     8    1
    13     7    31    1
    14     7    32    1
    15     8     9    1
    16     8    33    1
    17     8    34    1
    18     9    10    1
    19     9    35    1
    20     9    36    1
    21    10    11    1
    22    10    12    1
    23    12    13    1
    24    12    37    1
    25    13    21   ar
    26    13    14   ar
    27    14    15   ar
    28    14    38    1
    29    15    16   ar
    30    15    39    1
    31    16    17   ar
    32    17    18    1
    33    17    21   ar
    34    18    20    1
    35    18    19    1
    36    18    40    1
    37    19    20    1
    38    19    41    1
    39    19    42    1
    40    20    43    1
    41    20    44    1
    42    22    23    1
    43    22    25    1
    44    22    24    1
    45    24    25    1
    46    24    45    1
    47    24    46    1
    48    25    26    1
    49    25    27    1
@<TRIPOS>SUBSTRUCTURE
     1 ZINC001045463759        1 TEMP              0 ****  ****    0 ROOT


##########                                Name:    ZINC001328997126
##########                DOCK_Rotatable_Bonds:                   7
##########                         Heavy_Atoms:                  26
##########                    Molecular_Weight:             388.488
##########                DOCK_Rotatable_Bonds:                   7
##########                       Formal_Charge:           0.0299993
##########                     HBond_Acceptors:                  10
##########                        HBond_Donors:                   1
##########                         Heavy_Atoms:                  26
##########                          Grid_Score:          -28.940624
##########                     Grid_vdw_energy:          -26.141981
##########                      Grid_es_energy:           -2.798643
##########           Internal_energy_repulsive:            7.492586

@<TRIPOS>MOLECULE
ZINC001328997126
 54 56 1 0 0
SMALL
USER_CHARGES


@<TRIPOS>ATOM
      1 C1          0.7955   -1.1844   62.0935 C.3     1  ZINC001328997126   -0.1700
      2 C2          1.4639    0.1805   62.2702 C.3     1  ZINC001328997126    0.1400
      3 N3          1.2144    1.0036   61.0843 N.am    1  ZINC001328997126   -0.6300
      4 C4          0.1051    1.9558   60.9219 C.3     1  ZINC001328997126    0.0700
      5 C5          0.3222    2.5347   59.5104 C.3     1  ZINC001328997126    0.0700
      6 H6          0.4881    3.6109   59.5602 H       1  ZINC001328997126    0.1200
      7 C7         -0.8748    2.2190   58.6113 C.3     1  ZINC001328997126    0.0500
      8 N8         -1.0992    3.3363   57.6845 N.3     1  ZINC001328997126   -0.5300
      9 C9         -2.5154    3.4278   57.3027 C.3     1  ZINC001328997126    0.0500
     10 C10        -2.7205    4.6485   56.4026 C.3     1  ZINC001328997126    0.0600
     11 N11        -1.8644    4.5270   55.2143 N.3     1  ZINC001328997126   -0.5200
     12 C12        -2.0887    5.6444   54.2874 C.3     1  ZINC001328997126    0.0400
     13 C13        -1.4170    5.3482   52.9714 C.2     1  ZINC001328997126    0.5200
     14 O14        -0.2951    5.7566   52.7577 O.2     1  ZINC001328997126   -0.5100
     15 N15        -2.0628    4.6294   52.0319 N.am    1  ZINC001328997126   -0.7300
     16 C16        -1.4103    4.3429   50.7518 C.3     1  ZINC001328997126    0.1600
     17 H17        -0.7792    5.1843   50.4658 H       1  ZINC001328997126    0.1100
     18 C18        -0.5516    3.0728   50.8817 C.3     1  ZINC001328997126   -0.1400
     19 C19        -0.1690    2.6466   49.4408 C.3     1  ZINC001328997126   -0.5800
     20 S20        -1.7380    2.8867   48.5242 S.o2    1  ZINC001328997126    2.4000
     21 O21        -1.4644    3.5126   47.2781 O.2     1  ZINC001328997126   -0.9300
     22 O22        -2.4937    1.6838   48.5611 O.2     1  ZINC001328997126   -0.9300
     23 C23        -2.4796    4.1047   49.6670 C.3     1  ZINC001328997126   -0.6100
     24 C24        -0.4483    4.4356   55.5960 C.3     1  ZINC001328997126    0.0500
     25 C25        -0.2431    3.2150   56.4962 C.3     1  ZINC001328997126    0.0600
     26 O26         1.5183    1.8552   59.0306 O.3     1  ZINC001328997126   -0.3100
     27 C27         1.9627    1.0159   59.9728 C.2     1  ZINC001328997126    0.6400
     28 O28         2.9501    0.3222   59.8305 O.2     1  ZINC001328997126   -0.5200
     29 H29        -0.2783   -1.0492   61.9645 H       1  ZINC001328997126    0.0600
     30 H30         1.2077   -1.6796   61.2144 H       1  ZINC001328997126    0.0600
     31 H31         0.9812   -1.7969   62.9759 H       1  ZINC001328997126    0.0700
     32 H32         1.0518    0.6757   63.1495 H       1  ZINC001328997126    0.0900
     33 H33         2.5378    0.0453   62.3993 H       1  ZINC001328997126    0.0900
     34 H34        -0.8536    1.4406   60.9812 H       1  ZINC001328997126    0.0900
     35 H35         0.1643    2.7441   61.6724 H       1  ZINC001328997126    0.0900
     36 H36        -0.6732    1.3107   58.0436 H       1  ZINC001328997126    0.0900
     37 H37        -1.7628    2.0733   59.2264 H       1  ZINC001328997126    0.0600
     38 H38        -2.8057    2.5258   56.7641 H       1  ZINC001328997126    0.0500
     39 H39        -3.1277    3.5296   58.1987 H       1  ZINC001328997126    0.0900
     40 H40        -3.7647    4.7018   56.0946 H       1  ZINC001328997126    0.0800
     41 H41        -2.4559    5.5529   56.9504 H       1  ZINC001328997126    0.0500
     42 H42        -3.1591    5.7748   54.1277 H       1  ZINC001328997126    0.1100
     43 H43        -1.6707    6.5576   54.7113 H       1  ZINC001328997126    0.0700
     44 H44        -2.9596    4.3018   52.2032 H       1  ZINC001328997126    0.4100
     45 H45         0.3479    3.2876   51.4586 H       1  ZINC001328997126    0.1100
     46 H46        -1.1255    2.2819   51.3648 H       1  ZINC001328997126    0.0900
     47 H47         0.6144    3.2910   49.0420 H       1  ZINC001328997126    0.1400
     48 H48         0.1380    1.6011   49.4151 H       1  ZINC001328997126    0.1400
     49 H49        -3.3891    3.7013   50.1121 H       1  ZINC001328997126    0.1400
     50 H50        -2.6948    5.0348   49.1411 H       1  ZINC001328997126    0.1500
     51 H51         0.1641    4.3337   54.7001 H       1  ZINC001328997126    0.1000
     52 H52        -0.1579    5.3376   56.1347 H       1  ZINC001328997126    0.0400
     53 H53         0.8011    3.1616   56.8042 H       1  ZINC001328997126    0.0800
     54 H54        -0.5077    2.3105   55.9483 H       1  ZINC001328997126    0.0500
@<TRIPOS>BOND
     1     1     2    1
     2     1    29    1
     3     1    30    1
     4     1    31    1
     5     2     3    1
     6     2    32    1
     7     2    33    1
     8     3    27   am
     9     3     4    1
    10     4     5    1
    11     4    34    1
    12     4    35    1
    13     5     6    1
    14     5     7    1
    15     5    26    1
    16     7     8    1
    17     7    36    1
    18     7    37    1
    19     8    25    1
    20     8     9    1
    21     9    10    1
    22     9    38    1
    23     9    39    1
    24    10    11    1
    25    10    40    1
    26    10    41    1
    27    11    12    1
    28    11    24    1
    29    12    13    1
    30    12    42    1
    31    12    43    1
    32    13    14    2
    33    13    15   am
    34    15    16    1
    35    15    44    1
    36    16    17    1
    37    16    23    1
    38    16    18    1
    39    18    19    1
    40    18    45    1
    41    18    46    1
    42    19    20    1
    43    19    47    1
    44    19    48    1
    45    20    21    2
    46    20    22    2
    47    20    23    1
    48    23    49    1
    49    23    50    1
    50    24    25    1
    51    24    51    1
    52    24    52    1
    53    25    53    1
    54    25    54    1
    55    26    27    1
    56    27    28    2
@<TRIPOS>SUBSTRUCTURE
     1 ZINC001328997126        1 TEMP              0 ****  ****    0 ROOT


##########                                Name:    ZINC000842947763
##########                DOCK_Rotatable_Bonds:                   7
##########                         Heavy_Atoms:                  24
##########                    Molecular_Weight:             365.373
##########                DOCK_Rotatable_Bonds:                   7
##########                       Formal_Charge:          0.00999997
##########                     HBond_Acceptors:                   9
##########                        HBond_Donors:                   0
##########                         Heavy_Atoms:                  24
##########                          Grid_Score:          -28.939777
##########                     Grid_vdw_energy:          -29.270290
##########                      Grid_es_energy:            0.330513
##########           Internal_energy_repulsive:           33.858257

@<TRIPOS>MOLECULE
ZINC000842947763
 42 43 1 0 0
SMALL
USER_CHARGES


@<TRIPOS>ATOM
      1 C1          1.9154    0.2876   47.9360 C.3     1  ZINC000842947763   -0.1600
      2 C2          1.9840    0.6767   49.4140 C.3     1  ZINC000842947763   -0.1000
      3 H3          1.1451    0.2290   49.9469 H       1  ZINC000842947763    0.1000
      4 C4          1.9163    2.1997   49.5441 C.3     1  ZINC000842947763    0.0800
      5 O5          0.6679    2.5759   50.1829 O.3     1  ZINC000842947763   -0.3500
      6 C6         -0.3370    2.9714   49.3768 C.2     1  ZINC000842947763    0.5200
      7 O7         -0.1015    3.3099   48.2337 O.2     1  ZINC000842947763   -0.5100
      8 C8         -1.7215    2.9936   49.8816 C.ar    1  ZINC000842947763   -0.1600
      9 C9         -2.7133    2.2355   49.2512 C.ar    1  ZINC000842947763   -0.0200
     10 C10        -4.0017    2.2604   49.7269 C.ar    1  ZINC000842947763   -0.1700
     11 C11        -4.3297    3.0419   50.8415 C.ar    1  ZINC000842947763    0.2000
     12 C12        -3.3368    3.7919   51.4611 C.ar    1  ZINC000842947763   -0.1500
     13 C13        -2.0516    3.7683   50.9976 C.ar    1  ZINC000842947763   -0.0100
     14 C14        -3.9544    4.5339   52.6259 C.3     1  ZINC000842947763   -0.0800
     15 C15        -5.4345    4.1188   52.6038 C.3     1  ZINC000842947763    0.1100
     16 N16        -5.5594    3.2006   51.4691 N.am    1  ZINC000842947763   -0.9400
     17 S17        -6.9640    2.4589   51.0012 S.o2    1  ZINC000842947763    2.6100
     18 C18        -7.4611    1.4791   52.4446 C.3     1  ZINC000842947763   -0.6700
     19 O19        -7.8726    3.5308   50.7892 O.2     1  ZINC000842947763   -0.9300
     20 O20        -6.5721    1.6085   49.9324 O.2     1  ZINC000842947763   -0.9400
     21 C21         3.2975    0.1714   50.0141 C.3     1  ZINC000842947763   -0.1600
     22 C22         3.3432   -1.3555   49.9287 C.3     1  ZINC000842947763    0.4600
     23 F23         3.8502   -1.7379   48.6821 F       1  ZINC000842947763   -0.1800
     24 F24         4.1694   -1.8548   50.9413 F       1  ZINC000842947763   -0.1800
     25 F25         2.0517   -1.8702   50.0845 F       1  ZINC000842947763   -0.1800
     26 H26         1.8223   -0.7950   47.8492 H       1  ZINC000842947763    0.0700
     27 H27         1.0511    0.7649   47.4742 H       1  ZINC000842947763    0.0700
     28 H28         2.8243    0.6156   47.4313 H       1  ZINC000842947763    0.0600
     29 H29         2.7535    2.5503   50.1478 H       1  ZINC000842947763    0.0800
     30 H30         1.9682    2.6516   48.5535 H       1  ZINC000842947763    0.0800
     31 H31        -2.4665    1.6313   48.3907 H       1  ZINC000842947763    0.1500
     32 H32        -4.7660    1.6740   49.2384 H       1  ZINC000842947763    0.1500
     33 H33        -1.2907    4.3559   51.4896 H       1  ZINC000842947763    0.1400
     34 H34        -3.4873    4.2287   53.5623 H       1  ZINC000842947763    0.1000
     35 H35        -3.8588    5.6106   52.4851 H       1  ZINC000842947763    0.1000
     36 H36        -5.6987    3.6114   53.5316 H       1  ZINC000842947763    0.1000
     37 H37        -6.0699    4.9919   52.4553 H       1  ZINC000842947763    0.0900
     38 H38        -7.6147    2.1407   53.2973 H       1  ZINC000842947763    0.1300
     39 H39        -8.3883    0.9506   52.2232 H       1  ZINC000842947763    0.1400
     40 H40        -6.6790    0.7576   52.6809 H       1  ZINC000842947763    0.1300
     41 H41         4.1360    0.5916   49.4587 H       1  ZINC000842947763    0.1200
     42 H42         3.3622    0.4790   51.0578 H       1  ZINC000842947763    0.1100
@<TRIPOS>BOND
     1     1     2    1
     2     1    26    1
     3     1    27    1
     4     1    28    1
     5     2     3    1
     6     2     4    1
     7     2    21    1
     8     4     5    1
     9     4    29    1
    10     4    30    1
    11     5     6    1
    12     6     7    2
    13     6     8    1
    14     8    13   ar
    15     8     9   ar
    16     9    10   ar
    17     9    31    1
    18    10    11   ar
    19    10    32    1
    20    11    16    1
    21    11    12   ar
    22    12    13   ar
    23    12    14    1
    24    13    33    1
    25    14    15    1
    26    14    34    1
    27    14    35    1
    28    15    16    1
    29    15    36    1
    30    15    37    1
    31    16    17   am
    32    17    18    1
    33    17    19    2
    34    17    20    2
    35    18    38    1
    36    18    39    1
    37    18    40    1
    38    21    22    1
    39    21    41    1
    40    21    42    1
    41    22    23    1
    42    22    24    1
    43    22    25    1
@<TRIPOS>SUBSTRUCTURE
     1 ZINC000842947763        1 TEMP              0 ****  ****    0 ROOT


##########                                Name:    ZINC000279452407
##########                DOCK_Rotatable_Bonds:                   6
##########                         Heavy_Atoms:                  24
##########                    Molecular_Weight:              375.47
##########                DOCK_Rotatable_Bonds:                   6
##########                       Formal_Charge:          0.00999929
##########                     HBond_Acceptors:                  10
##########                        HBond_Donors:                   3
##########                         Heavy_Atoms:                  24
##########                          Grid_Score:          -28.933300
##########                     Grid_vdw_energy:          -27.391148
##########                      Grid_es_energy:           -1.542153
##########           Internal_energy_repulsive:           27.202135

@<TRIPOS>MOLECULE
ZINC000279452407
 45 47 1 0 0
SMALL
USER_CHARGES


@<TRIPOS>ATOM
      1 C1        -12.3053   -1.5168   56.0578 C.3     1  ZINC000279452407   -0.1600
      2 C2        -12.7425   -2.9669   55.8409 C.3     1  ZINC000279452407    0.0600
      3 H3        -11.9775   -3.5053   55.2813 H       1  ZINC000279452407    0.0700
      4 O4        -13.9893   -3.0006   55.1233 O.3     1  ZINC000279452407   -0.3700
      5 C5        -14.7320   -4.1352   55.6204 C.3     1  ZINC000279452407    0.0500
      6 C6        -14.4534   -4.1118   57.1461 C.3     1  ZINC000279452407   -0.1400
      7 C7        -12.9776   -3.6506   57.1958 C.3     1  ZINC000279452407    0.0700
      8 C8        -12.7819   -2.6531   58.3347 C.3     1  ZINC000279452407    0.1100
      9 N9        -11.3421   -2.3732   58.4669 N.am    1  ZINC000279452407   -0.6300
     10 C10       -10.8829   -1.1075   58.5278 C.2     1  ZINC000279452407    0.7200
     11 O11       -11.6612   -0.1751   58.4733 O.2     1  ZINC000279452407   -0.5800
     12 N12        -9.5608   -0.8755   58.6491 N.am    1  ZINC000279452407   -0.7500
     13 C13        -9.0617    0.5002   58.7153 C.3     1  ZINC000279452407    0.2000
     14 C14        -9.0376    0.9573   60.1512 C.2     1  ZINC000279452407   -0.1700
     15 C15        -9.2082    2.2153   60.5607 C.2     1  ZINC000279452407   -0.1400
     16 C16        -9.1455    2.3960   61.9316 C.2     1  ZINC000279452407    0.0100
     17 C17        -8.9239    1.2848   62.6354 C.2     1  ZINC000279452407   -0.7900
     18 S18        -8.7953    1.2031   64.3909 S.o2    1  ZINC000279452407    2.7300
     19 N19        -7.2164    1.5139   64.7817 N.am    1  ZINC000279452407   -1.2500
     20 O20        -9.5562    2.2900   64.8999 O.2     1  ZINC000279452407   -0.9600
     21 O21        -9.0382   -0.1505   64.7484 O.2     1  ZINC000279452407   -0.9500
     22 S22        -8.7879   -0.0876   61.5438 S.3     1  ZINC000279452407    0.2500
     23 C23       -10.4205   -3.5187   58.5308 C.3     1  ZINC000279452407    0.0700
     24 C24       -10.7235   -4.4523   57.3534 C.3     1  ZINC000279452407    0.0400
     25 O25       -12.1179   -4.7726   57.3530 O.3     1  ZINC000279452407   -0.3600
     26 H26       -11.3186   -1.5002   56.5207 H       1  ZINC000279452407    0.0700
     27 H27       -12.2651   -1.0019   55.0980 H       1  ZINC000279452407    0.0600
     28 H28       -13.0207   -1.0153   56.7096 H       1  ZINC000279452407    0.0800
     29 H29       -15.7969   -4.0128   55.4230 H       1  ZINC000279452407    0.1000
     30 H30       -14.3623   -5.0598   55.1771 H       1  ZINC000279452407    0.0700
     31 H31       -15.1037   -3.3965   57.6498 H       1  ZINC000279452407    0.1000
     32 H32       -14.5635   -5.1067   57.5773 H       1  ZINC000279452407    0.1000
     33 H33       -13.3153   -1.7298   58.1088 H       1  ZINC000279452407    0.1200
     34 H34       -13.1589   -3.0797   59.2641 H       1  ZINC000279452407    0.0800
     35 H35        -8.9398   -1.6194   58.6925 H       1  ZINC000279452407    0.4000
     36 H36        -8.0531    0.5411   58.3041 H       1  ZINC000279452407    0.1000
     37 H37        -9.7163    1.1525   58.1373 H       1  ZINC000279452407    0.0900
     38 H38        -9.3817    3.0311   59.8745 H       1  ZINC000279452407    0.1600
     39 H39        -9.2663    3.3635   62.3961 H       1  ZINC000279452407    0.1600
     40 H40        -6.8131    2.3605   64.5339 H       1  ZINC000279452407    0.4200
     41 H41        -6.6950    0.8492   65.2584 H       1  ZINC000279452407    0.4200
     42 H42        -9.3917   -3.1654   58.4628 H       1  ZINC000279452407    0.0900
     43 H43       -10.5658   -4.0538   59.4693 H       1  ZINC000279452407    0.0900
     44 H44       -10.4639   -3.9553   56.4186 H       1  ZINC000279452407    0.0600
     45 H45       -10.1398   -5.3672   57.4545 H       1  ZINC000279452407    0.1100
@<TRIPOS>BOND
     1     1     2    1
     2     1    26    1
     3     1    27    1
     4     1    28    1
     5     2     3    1
     6     2     7    1
     7     2     4    1
     8     4     5    1
     9     5     6    1
    10     5    29    1
    11     5    30    1
    12     6     7    1
    13     6    31    1
    14     6    32    1
    15     7    25    1
    16     7     8    1
    17     8     9    1
    18     8    33    1
    19     8    34    1
    20     9    10   am
    21     9    23    1
    22    10    11    2
    23    10    12   am
    24    12    13    1
    25    12    35    1
    26    13    14    1
    27    13    36    1
    28    13    37    1
    29    14    22    1
    30    14    15    2
    31    15    16    1
    32    15    38    1
    33    16    17    2
    34    16    39    1
    35    17    18    1
    36    17    22    1
    37    18    19   am
    38    18    20    2
    39    18    21    2
    40    19    40    1
    41    19    41    1
    42    23    24    1
    43    23    42    1
    44    23    43    1
    45    24    25    1
    46    24    44    1
    47    24    45    1
@<TRIPOS>SUBSTRUCTURE
     1 ZINC000279452407        1 TEMP              0 ****  ****    0 ROOT


##########                                Name:    ZINC000076573199
##########                DOCK_Rotatable_Bonds:                  10
##########                         Heavy_Atoms:                  24
##########                    Molecular_Weight:             333.431
##########                DOCK_Rotatable_Bonds:                  10
##########                       Formal_Charge:          -0.0200009
##########                     HBond_Acceptors:                   6
##########                        HBond_Donors:                   3
##########                         Heavy_Atoms:                  24
##########                          Grid_Score:          -28.932110
##########                     Grid_vdw_energy:          -27.619198
##########                      Grid_es_energy:           -1.312912
##########           Internal_energy_repulsive:           19.439812

@<TRIPOS>MOLECULE
ZINC000076573199
 51 51 1 0 0
SMALL
USER_CHARGES


@<TRIPOS>ATOM
      1 C1          3.6987    5.4481   44.5280 C.3     1  ZINC000076573199   -0.1500
      2 C2          2.8054    4.5078   43.7163 C.3     1  ZINC000076573199   -0.1200
      3 C3          1.7693    3.8646   44.6403 C.3     1  ZINC000076573199   -0.1000
      4 H4          1.1329    3.1948   44.0621 H       1  ZINC000076573199    0.0700
      5 C5          0.9107    4.9564   45.2820 C.3     1  ZINC000076573199   -0.1500
      6 C6          2.4852    3.0700   45.7344 C.3     1  ZINC000076573199   -0.1200
      7 C7          1.5824    1.9302   46.2104 C.3     1  ZINC000076573199    0.1400
      8 H8          0.8908    1.6574   45.4135 H       1  ZINC000076573199    0.1000
      9 C9          2.4415    0.7184   46.5772 C.3     1  ZINC000076573199   -0.1700
     10 N10         0.8251    2.3658   47.3864 N.am    1  ZINC000076573199   -0.6900
     11 C11        -0.4841    2.0642   47.4945 C.2     1  ZINC000076573199    0.5100
     12 O12        -1.0359    1.4332   46.6169 O.2     1  ZINC000076573199   -0.5100
     13 C13        -1.2557    2.5067   48.6943 C.2     1  ZINC000076573199    0.5100
     14 O14        -0.6872    2.6751   49.7534 O.2     1  ZINC000076573199   -0.5000
     15 N15        -2.5834    2.7191   48.6010 N.am    1  ZINC000076573199   -0.6400
     16 C16        -3.3053    3.1331   49.7233 C.ar    1  ZINC000076573199    0.1500
     17 C17        -3.2446    4.4574   50.1399 C.ar    1  ZINC000076573199   -0.1300
     18 C18        -3.9587    4.8673   51.2495 C.ar    1  ZINC000076573199   -0.0800
     19 C19        -4.7348    3.9629   51.9482 C.ar    1  ZINC000076573199   -0.1200
     20 C20        -5.5122    4.4146   53.1575 C.3     1  ZINC000076573199   -0.1100
     21 C21        -4.7997    2.6371   51.5369 C.ar    1  ZINC000076573199    0.1600
     22 N22        -5.5862    1.7220   52.2453 N.am    1  ZINC000076573199   -0.6700
     23 C23        -6.5840    1.0657   51.6208 C.2     1  ZINC000076573199    0.5100
     24 C24        -7.4311    0.0800   52.3836 C.3     1  ZINC000076573199   -0.1700
     25 O25        -6.8004    1.2684   50.4447 O.2     1  ZINC000076573199   -0.5200
     26 C26        -4.0885    2.2231   50.4204 C.ar    1  ZINC000076573199   -0.1400
     27 H27         4.2087    4.8818   45.3074 H       1  ZINC000076573199    0.0600
     28 H28         4.4368    5.9062   43.8698 H       1  ZINC000076573199    0.0500
     29 H29         3.0871    6.2258   44.9852 H       1  ZINC000076573199    0.0500
     30 H30         2.2954    5.0740   42.9370 H       1  ZINC000076573199    0.0600
     31 H31         3.4171    3.7301   43.2592 H       1  ZINC000076573199    0.0600
     32 H32         1.5336    5.5767   45.9265 H       1  ZINC000076573199    0.0600
     33 H33         0.4664    5.5747   44.5019 H       1  ZINC000076573199    0.0600
     34 H34         0.1205    4.4958   45.8747 H       1  ZINC000076573199    0.0500
     35 H35         3.4120    2.6572   45.3361 H       1  ZINC000076573199    0.0800
     36 H36         2.7116    3.7287   46.5728 H       1  ZINC000076573199    0.0700
     37 H37         1.7983   -0.0937   46.9164 H       1  ZINC000076573199    0.0600
     38 H38         3.0050    0.3942   45.7022 H       1  ZINC000076573199    0.0700
     39 H39         3.1332    0.9911   47.3742 H       1  ZINC000076573199    0.0600
     40 H40         1.2659    2.8711   48.0874 H       1  ZINC000076573199    0.4100
     41 H41        -3.0377    2.5846   47.7545 H       1  ZINC000076573199    0.4200
     42 H42        -2.6385    5.1667   49.5961 H       1  ZINC000076573199    0.1400
     43 H43        -3.9096    5.8969   51.5715 H       1  ZINC000076573199    0.1300
     44 H44        -6.5026    4.7488   52.8487 H       1  ZINC000076573199    0.0700
     45 H45        -5.6106    3.5846   53.8571 H       1  ZINC000076573199    0.0600
     46 H46        -4.9856    5.2372   53.6414 H       1  ZINC000076573199    0.0700
     47 H47        -5.4132    1.5598   53.1859 H       1  ZINC000076573199    0.4100
     48 H48        -7.9275    0.5901   53.2092 H       1  ZINC000076573199    0.0900
     49 H49        -8.1804   -0.3473   51.7174 H       1  ZINC000076573199    0.1000
     50 H50        -6.7979   -0.7156   52.7764 H       1  ZINC000076573199    0.0900
     51 H51        -4.1374    1.1932   50.0987 H       1  ZINC000076573199    0.1400
@<TRIPOS>BOND
     1     1     2    1
     2     1    27    1
     3     1    28    1
     4     1    29    1
     5     2     3    1
     6     2    30    1
     7     2    31    1
     8     3     4    1
     9     3     5    1
    10     3     6    1
    11     5    32    1
    12     5    33    1
    13     5    34    1
    14     6     7    1
    15     6    35    1
    16     6    36    1
    17     7     8    1
    18     7     9    1
    19     7    10    1
    20     9    37    1
    21     9    38    1
    22     9    39    1
    23    10    11   am
    24    10    40    1
    25    11    12    2
    26    11    13    1
    27    13    14    2
    28    13    15   am
    29    15    16    1
    30    15    41    1
    31    16    26   ar
    32    16    17   ar
    33    17    18   ar
    34    17    42    1
    35    18    19   ar
    36    18    43    1
    37    19    20    1
    38    19    21   ar
    39    20    44    1
    40    20    45    1
    41    20    46    1
    42    21    22    1
    43    21    26   ar
    44    22    23   am
    45    22    47    1
    46    23    24    1
    47    23    25    2
    48    24    48    1
    49    24    49    1
    50    24    50    1
    51    26    51    1
@<TRIPOS>SUBSTRUCTURE
     1 ZINC000076573199        1 TEMP              0 ****  ****    0 ROOT


##########                                Name:    ZINC001757264545
##########                DOCK_Rotatable_Bonds:                  11
##########                         Heavy_Atoms:                  25
##########                    Molecular_Weight:             344.497
##########                DOCK_Rotatable_Bonds:                  11
##########                       Formal_Charge:          0.00999946
##########                     HBond_Acceptors:                   4
##########                        HBond_Donors:                   2
##########                         Heavy_Atoms:                  25
##########                          Grid_Score:          -28.928713
##########                     Grid_vdw_energy:          -29.469023
##########                      Grid_es_energy:            0.540310
##########           Internal_energy_repulsive:            9.767728

@<TRIPOS>MOLECULE
ZINC001757264545
 57 57 1 0 0
SMALL
USER_CHARGES


@<TRIPOS>ATOM
      1 C1         -7.5929   -0.5620   52.1719 C.1     1  ZINC001757264545   -0.2100
      2 C2         -7.3759    0.5881   52.2652 C.1     1  ZINC001757264545   -0.1900
      3 C3         -7.1039    2.0300   52.3821 C.3     1  ZINC001757264545   -0.0100
      4 C4         -6.2878    2.4946   51.1741 C.3     1  ZINC001757264545   -0.1200
      5 C5         -5.0015    1.6714   51.0807 C.3     1  ZINC001757264545   -0.1200
      6 C6         -4.1287    2.2158   49.9481 C.3     1  ZINC001757264545   -0.1000
      7 C7         -3.3818    3.4600   50.4328 C.3     1  ZINC001757264545   -0.1400
      8 C8         -2.2266    3.7446   49.5078 C.2     1  ZINC001757264545    0.5100
      9 O9         -2.0961    4.8485   49.0225 O.2     1  ZINC001757264545   -0.5400
     10 N10        -1.3385    2.7726   49.2198 N.am    1  ZINC001757264545   -0.7300
     11 C11        -0.2146    3.0498   48.3220 C.3     1  ZINC001757264545    0.1400
     12 H12        -0.0177    4.1218   48.3065 H       1  ZINC001757264545    0.1000
     13 C13        -0.5609    2.5745   46.9095 C.3     1  ZINC001757264545   -0.1300
     14 C14         0.6129    2.8640   45.9718 C.3     1  ZINC001757264545   -0.1200
     15 C15         1.8568    2.1243   46.4683 C.3     1  ZINC001757264545   -0.1200
     16 C16         2.2030    2.5995   47.8808 C.3     1  ZINC001757264545   -0.1300
     17 C17         1.0292    2.3099   48.8184 C.3     1  ZINC001757264545    0.1400
     18 H18         0.8323    1.2381   48.8338 H       1  ZINC001757264545    0.1000
     19 N19         1.3608    2.7651   50.1708 N.am    1  ZINC001757264545   -0.7200
     20 C20         2.0980    1.9823   50.9835 C.2     1  ZINC001757264545    0.6400
     21 O21         2.4891    0.8989   50.5935 O.2     1  ZINC001757264545   -0.5200
     22 C22         2.4206    2.4265   52.3061 C.1     1  ZINC001757264545   -0.2300
     23 C23         2.6851    2.7906   53.3905 C.1     1  ZINC001757264545   -0.0500
     24 C24         3.0168    3.2471   54.7500 C.3     1  ZINC001757264545    0.0300
     25 C25         2.6908    2.1393   55.7536 C.3     1  ZINC001757264545   -0.1400
     26 C26         4.5078    3.5815   54.8261 C.3     1  ZINC001757264545   -0.1400
     27 C27         2.1965    4.4948   55.0833 C.3     1  ZINC001757264545   -0.1400
     28 H28        -7.7869   -1.5905   52.0885 H       1  ZINC001757264545    0.2200
     29 H29        -6.5411    2.2206   53.2958 H       1  ZINC001757264545    0.0900
     30 H30        -8.0467    2.5760   52.4154 H       1  ZINC001757264545    0.0900
     31 H31        -6.0367    3.5490   51.2891 H       1  ZINC001757264545    0.0700
     32 H32        -6.8737    2.3575   50.2654 H       1  ZINC001757264545    0.0700
     33 H33        -5.2507    0.6296   50.8786 H       1  ZINC001757264545    0.0700
     34 H34        -4.4578    1.7387   52.0229 H       1  ZINC001757264545    0.0700
     35 H35        -4.7586    2.4783   49.0981 H       1  ZINC001757264545    0.0700
     36 H36        -3.4093    1.4548   49.6459 H       1  ZINC001757264545    0.0700
     37 H37        -3.0057    3.2882   51.4414 H       1  ZINC001757264545    0.0900
     38 H38        -4.0611    4.3124   50.4387 H       1  ZINC001757264545    0.0900
     39 H39        -1.4436    1.8894   49.6070 H       1  ZINC001757264545    0.4000
     40 H40        -0.7578    1.5026   46.9250 H       1  ZINC001757264545    0.0700
     41 H41        -1.4470    3.1016   46.5558 H       1  ZINC001757264545    0.0800
     42 H42         0.3662    2.5254   44.9655 H       1  ZINC001757264545    0.0700
     43 H43         0.8098    3.9360   45.9564 H       1  ZINC001757264545    0.0700
     44 H44         2.6929    2.3305   45.8003 H       1  ZINC001757264545    0.0700
     45 H45         1.6599    1.0523   46.4837 H       1  ZINC001757264545    0.0700
     46 H46         2.3999    3.6715   47.8654 H       1  ZINC001757264545    0.0700
     47 H47         3.0892    2.0724   48.2344 H       1  ZINC001757264545    0.0800
     48 H48         1.0497    3.6297   50.4815 H       1  ZINC001757264545    0.4000
     49 H49         3.2752    1.2503   55.5162 H       1  ZINC001757264545    0.0600
     50 H50         2.9363    2.4773   56.7604 H       1  ZINC001757264545    0.0700
     51 H51         1.6285    1.9010   55.6994 H       1  ZINC001757264545    0.0600
     52 H52         4.7401    4.3707   54.1111 H       1  ZINC001757264545    0.0600
     53 H53         4.7535    3.9196   55.8328 H       1  ZINC001757264545    0.0700
     54 H54         5.0922    2.6926   54.5886 H       1  ZINC001757264545    0.0600
     55 H55         1.1342    4.2565   55.0291 H       1  ZINC001757264545    0.0600
     56 H56         2.4421    4.8329   56.0901 H       1  ZINC001757264545    0.0700
     57 H57         2.4288    5.2840   54.3682 H       1  ZINC001757264545    0.0600
@<TRIPOS>BOND
     1     1     2    3
     2     1    28    1
     3     2     3    1
     4     3     4    1
     5     3    29    1
     6     3    30    1
     7     4     5    1
     8     4    31    1
     9     4    32    1
    10     5     6    1
    11     5    33    1
    12     5    34    1
    13     6     7    1
    14     6    35    1
    15     6    36    1
    16     7     8    1
    17     7    37    1
    18     7    38    1
    19     8     9    2
    20     8    10   am
    21    10    11    1
    22    10    39    1
    23    11    12    1
    24    11    17    1
    25    11    13    1
    26    13    14    1
    27    13    40    1
    28    13    41    1
    29    14    15    1
    30    14    42    1
    31    14    43    1
    32    15    16    1
    33    15    44    1
    34    15    45    1
    35    16    17    1
    36    16    46    1
    37    16    47    1
    38    17    18    1
    39    17    19    1
    40    19    20   am
    41    19    48    1
    42    20    21    2
    43    20    22    1
    44    22    23    3
    45    23    24    1
    46    24    25    1
    47    24    26    1
    48    24    27    1
    49    25    49    1
    50    25    50    1
    51    25    51    1
    52    26    52    1
    53    26    53    1
    54    26    54    1
    55    27    55    1
    56    27    56    1
    57    27    57    1
@<TRIPOS>SUBSTRUCTURE
     1 ZINC001757264545        1 TEMP              0 ****  ****    0 ROOT


##########                                Name:    ZINC000469459940
##########                DOCK_Rotatable_Bonds:                   7
##########                         Heavy_Atoms:                  24
##########                    Molecular_Weight:             414.295
##########                DOCK_Rotatable_Bonds:                   7
##########                       Formal_Charge:          -0.0200002
##########                     HBond_Acceptors:                   6
##########                        HBond_Donors:                   1
##########                         Heavy_Atoms:                  24
##########                          Grid_Score:          -28.925766
##########                     Grid_vdw_energy:          -29.894417
##########                      Grid_es_energy:            0.968651
##########           Internal_energy_repulsive:            6.651363

@<TRIPOS>MOLECULE
ZINC000469459940
 41 42 1 0 0
SMALL
USER_CHARGES


@<TRIPOS>ATOM
      1 C1          3.6421   -1.3349   49.6783 C.3     1  ZINC000469459940   -0.1600
      2 C2          2.7649   -1.1242   48.4426 C.3     1  ZINC000469459940   -0.1200
      3 C3          2.7095    0.3669   48.1046 C.3     1  ZINC000469459940   -0.1200
      4 C4          1.8047    0.5812   46.8896 C.3     1  ZINC000469459940   -0.6000
      5 S5          1.2679    2.3130   46.8333 S.o2    1  ZINC000469459940    2.4900
      6 O6          2.2173    3.1506   47.4785 O.2     1  ZINC000469459940   -0.9300
      7 O7          0.7612    2.6365   45.5458 O.2     1  ZINC000469459940   -0.9300
      8 C8         -0.1459    2.3695   47.8835 C.ar    1  ZINC000469459940   -0.6400
      9 C9          0.0101    2.6180   49.2357 C.ar    1  ZINC000469459940   -0.0300
     10 C10        -1.0925    2.6632   50.0635 C.ar    1  ZINC000469459940   -0.0800
     11 C11        -2.3677    2.4580   49.5340 C.ar    1  ZINC000469459940   -0.0900
     12 C12        -3.5538    2.5055   50.4149 C.2     1  ZINC000469459940    0.5600
     13 O13        -3.4161    2.6732   51.6111 O.2     1  ZINC000469459940   -0.5000
     14 N14        -4.7877    2.3626   49.8921 N.am    1  ZINC000469459940   -0.6700
     15 C15        -5.9100    2.4076   50.7257 C.ar    1  ZINC000469459940    0.1900
     16 C16        -6.4878    1.2285   51.1781 C.ar    1  ZINC000469459940   -0.1500
     17 C17        -7.5962    1.2744   52.0013 C.ar    1  ZINC000469459940   -0.0400
     18 C18        -8.1319    2.4933   52.3756 C.ar    1  ZINC000469459940   -0.1500
     19 Br19       -9.6492    2.5516   53.5027 Br      1  ZINC000469459940   -0.0200
     20 C20        -7.5581    3.6722   51.9262 C.ar    1  ZINC000469459940    0.1500
     21 F21        -8.0831    4.8618   52.2931 F       1  ZINC000469459940   -0.1200
     22 C22        -6.4446    3.6313   51.1068 C.ar    1  ZINC000469459940   -0.1500
     23 C23        -2.5180    2.2083   48.1689 C.ar    1  ZINC000469459940   -0.1100
     24 C24        -1.4075    2.1708   47.3513 C.ar    1  ZINC000469459940   -0.0300
     25 H25         4.6493   -0.9706   49.4753 H       1  ZINC000469459940    0.0600
     26 H26         3.2205   -0.7866   50.5209 H       1  ZINC000469459940    0.0600
     27 H27         3.6816   -2.3971   49.9192 H       1  ZINC000469459940    0.0600
     28 H28         3.1865   -1.6724   47.6001 H       1  ZINC000469459940    0.0700
     29 H29         1.7578   -1.4884   48.6456 H       1  ZINC000469459940    0.0700
     30 H30         2.3108    0.9181   48.9563 H       1  ZINC000469459940    0.0800
     31 H31         3.7135    0.7256   47.8776 H       1  ZINC000469459940    0.0800
     32 H32         2.3551    0.3417   45.9798 H       1  ZINC000469459940    0.1400
     33 H33         0.9320   -0.0672   46.9676 H       1  ZINC000469459940    0.1400
     34 H34         0.9973    2.7766   49.6440 H       1  ZINC000469459940    0.1500
     35 H35        -0.9694    2.8565   51.1188 H       1  ZINC000469459940    0.1500
     36 H36        -4.8975    2.2287   48.9377 H       1  ZINC000469459940    0.4200
     37 H37        -6.0711    0.2760   50.8861 H       1  ZINC000469459940    0.1500
     38 H38        -8.0452    0.3573   52.3529 H       1  ZINC000469459940    0.1500
     39 H39        -5.9970    4.5496   50.7565 H       1  ZINC000469459940    0.1600
     40 H40        -3.5018    2.0483   47.7531 H       1  ZINC000469459940    0.1400
     41 H41        -1.5223    1.9777   46.2950 H       1  ZINC000469459940    0.1500
@<TRIPOS>BOND
     1     1     2    1
     2     1    25    1
     3     1    26    1
     4     1    27    1
     5     2     3    1
     6     2    28    1
     7     2    29    1
     8     3     4    1
     9     3    30    1
    10     3    31    1
    11     4     5    1
    12     4    32    1
    13     4    33    1
    14     5     6    2
    15     5     7    2
    16     5     8    1
    17     8    24   ar
    18     8     9   ar
    19     9    10   ar
    20     9    34    1
    21    10    11   ar
    22    10    35    1
    23    11    12    1
    24    11    23   ar
    25    12    13    2
    26    12    14   am
    27    14    15    1
    28    14    36    1
    29    15    22   ar
    30    15    16   ar
    31    16    17   ar
    32    16    37    1
    33    17    18   ar
    34    17    38    1
    35    18    19    1
    36    18    20   ar
    37    20    21    1
    38    20    22   ar
    39    22    39    1
    40    23    24   ar
    41    23    40    1
    42    24    41    1
@<TRIPOS>SUBSTRUCTURE
     1 ZINC000469459940        1 TEMP              0 ****  ****    0 ROOT


##########                                Name:    ZINC000451019064
##########                DOCK_Rotatable_Bonds:                   8
##########                         Heavy_Atoms:                  23
##########                    Molecular_Weight:             346.534
##########                DOCK_Rotatable_Bonds:                   8
##########                       Formal_Charge:          -0.0200008
##########                     HBond_Acceptors:                   6
##########                        HBond_Donors:                   1
##########                         Heavy_Atoms:                  23
##########                          Grid_Score:          -28.922422
##########                     Grid_vdw_energy:          -28.522579
##########                      Grid_es_energy:           -0.399842
##########           Internal_energy_repulsive:            7.811916

@<TRIPOS>MOLECULE
ZINC000451019064
 57 58 1 0 0
SMALL
USER_CHARGES


@<TRIPOS>ATOM
      1 C1         -2.1552    2.7461   48.4034 C.3     1  ZINC000451019064   -0.1500
      2 C2         -3.1848    3.1448   49.4627 C.3     1  ZINC000451019064    0.0900
      3 H3         -3.6148    4.1129   49.2060 H       1  ZINC000451019064    0.0700
      4 C4         -2.5025    3.2348   50.8303 C.3     1  ZINC000451019064    0.0200
      5 N5         -3.5101    3.5423   51.8556 N.3     1  ZINC000451019064   -0.5400
      6 C6         -2.8871    3.6937   53.1773 C.3     1  ZINC000451019064    0.0600
      7 C7         -2.2721    5.0898   53.2942 C.3     1  ZINC000451019064   -0.1300
      8 C8         -2.2686    5.5243   54.7613 C.3     1  ZINC000451019064    0.1100
      9 N9         -1.5323    4.5414   55.5599 N.am    1  ZINC000451019064   -1.1200
     10 S10        -1.9681    4.2585   57.1324 S.o2    1  ZINC000451019064    2.6100
     11 O11        -1.7264    5.4944   57.7907 O.2     1  ZINC000451019064   -0.9600
     12 O12        -3.2804    3.7213   57.0412 O.2     1  ZINC000451019064   -0.9500
     13 C13        -0.8008    2.9935   57.7050 C.3     1  ZINC000451019064   -0.6300
     14 C14        -0.9401    2.8186   59.2185 C.3     1  ZINC000451019064   -0.1100
     15 C15         0.0853    1.7951   59.7102 C.3     1  ZINC000451019064   -0.0800
     16 C16         1.4976    2.3312   59.4679 C.3     1  ZINC000451019064   -0.1200
     17 C17         2.5231    1.3077   59.9595 C.3     1  ZINC000451019064   -0.1200
     18 C18         2.3208    1.0616   61.4560 C.3     1  ZINC000451019064   -0.1200
     19 C19         0.9085    0.5255   61.6984 C.3     1  ZINC000451019064   -0.1200
     20 C20        -0.1170    1.5491   61.2067 C.3     1  ZINC000451019064   -0.1200
     21 C21        -4.5580    2.5114   51.8820 C.3     1  ZINC000451019064    0.0200
     22 C22        -5.2196    2.4286   50.5038 C.3     1  ZINC000451019064    0.0900
     23 H23        -5.7095    3.3757   50.2778 H       1  ZINC000451019064    0.0700
     24 C24        -6.2567    1.3037   50.5017 C.3     1  ZINC000451019064   -0.1500
     25 O25        -4.2212    2.1607   49.5155 O.3     1  ZINC000451019064   -0.3800
     26 H26        -2.6419    2.6806   47.4302 H       1  ZINC000451019064    0.0700
     27 H27        -1.3649    3.4956   48.3647 H       1  ZINC000451019064    0.0700
     28 H28        -1.7255    1.7779   48.6606 H       1  ZINC000451019064    0.0600
     29 H29        -2.0257    2.2825   51.0626 H       1  ZINC000451019064    0.0400
     30 H30        -1.7506    4.0237   50.8106 H       1  ZINC000451019064    0.0900
     31 H31        -3.6426    3.5635   53.9521 H       1  ZINC000451019064    0.0400
     32 H32        -2.1076    2.9419   53.2998 H       1  ZINC000451019064    0.0800
     33 H33        -1.2489    5.0686   52.9192 H       1  ZINC000451019064    0.0800
     34 H34        -2.8596    5.7960   52.7076 H       1  ZINC000451019064    0.0800
     35 H35        -1.7879    6.4985   54.8505 H       1  ZINC000451019064    0.0800
     36 H36        -3.2948    5.5910   55.1227 H       1  ZINC000451019064    0.0700
     37 H37        -0.7896    4.0561   55.1677 H       1  ZINC000451019064    0.4200
     38 H38        -1.0176    2.0476   57.2084 H       1  ZINC000451019064    0.1300
     39 H39         0.2167    3.3037   57.4671 H       1  ZINC000451019064    0.1400
     40 H40        -0.7651    3.7744   59.7123 H       1  ZINC000451019064    0.0800
     41 H41        -1.9451    2.4674   59.4527 H       1  ZINC000451019064    0.0800
     42 H42        -0.0462    0.8593   59.1671 H       1  ZINC000451019064    0.0800
     43 H43         1.6417    2.5065   58.4017 H       1  ZINC000451019064    0.0600
     44 H44         1.6291    3.2671   60.0109 H       1  ZINC000451019064    0.0700
     45 H45         2.3915    0.3719   59.4164 H       1  ZINC000451019064    0.0600
     46 H46         3.5292    1.6896   59.7869 H       1  ZINC000451019064    0.0600
     47 H47         3.0513    0.3325   61.8063 H       1  ZINC000451019064    0.0600
     48 H48         2.4523    1.9975   61.9991 H       1  ZINC000451019064    0.0600
     49 H49         0.7769   -0.4103   61.1553 H       1  ZINC000451019064    0.0600
     50 H50         0.7644    0.3502   62.7645 H       1  ZINC000451019064    0.0600
     51 H51         0.0145    2.4849   61.7498 H       1  ZINC000451019064    0.0700
     52 H52        -1.1231    1.1671   61.3794 H       1  ZINC000451019064    0.0600
     53 H53        -4.1141    1.5476   52.1310 H       1  ZINC000451019064    0.0400
     54 H54        -5.3066    2.7724   52.6300 H       1  ZINC000451019064    0.0900
     55 H55        -7.0155    1.5078   51.2571 H       1  ZINC000451019064    0.0700
     56 H56        -6.7274    1.2453   49.5203 H       1  ZINC000451019064    0.0700
     57 H57        -5.7659    0.3567   50.7263 H       1  ZINC000451019064    0.0600
@<TRIPOS>BOND
     1     1     2    1
     2     1    26    1
     3     1    27    1
     4     1    28    1
     5     2     3    1
     6     2    25    1
     7     2     4    1
     8     4     5    1
     9     4    29    1
    10     4    30    1
    11     5     6    1
    12     5    21    1
    13     6     7    1
    14     6    31    1
    15     6    32    1
    16     7     8    1
    17     7    33    1
    18     7    34    1
    19     8     9    1
    20     8    35    1
    21     8    36    1
    22     9    10   am
    23     9    37    1
    24    10    11    2
    25    10    12    2
    26    10    13    1
    27    13    14    1
    28    13    38    1
    29    13    39    1
    30    14    15    1
    31    14    40    1
    32    14    41    1
    33    15    20    1
    34    15    16    1
    35    15    42    1
    36    16    17    1
    37    16    43    1
    38    16    44    1
    39    17    18    1
    40    17    45    1
    41    17    46    1
    42    18    19    1
    43    18    47    1
    44    18    48    1
    45    19    20    1
    46    19    49    1
    47    19    50    1
    48    20    51    1
    49    20    52    1
    50    21    22    1
    51    21    53    1
    52    21    54    1
    53    22    23    1
    54    22    24    1
    55    22    25    1
    56    24    55    1
    57    24    56    1
    58    24    57    1
@<TRIPOS>SUBSTRUCTURE
     1 ZINC000451019064        1 TEMP              0 ****  ****    0 ROOT


##########                                Name:    ZINC000750807956
##########                DOCK_Rotatable_Bonds:                  11
##########                         Heavy_Atoms:                  26
##########                    Molecular_Weight:             368.473
##########                DOCK_Rotatable_Bonds:                  11
##########                       Formal_Charge:        -8.12113e-07
##########                     HBond_Acceptors:                   7
##########                        HBond_Donors:                   1
##########                         Heavy_Atoms:                  26
##########                          Grid_Score:          -28.913322
##########                     Grid_vdw_energy:          -28.203741
##########                      Grid_es_energy:           -0.709581
##########           Internal_energy_repulsive:           98.670120

@<TRIPOS>MOLECULE
ZINC000750807956
 58 59 1 0 0
SMALL
USER_CHARGES


@<TRIPOS>ATOM
      1 C1         -5.5956    4.4526   57.0755 C.3     1  ZINC000750807956   -0.1500
      2 C2         -6.2691    5.1142   55.8714 C.3     1  ZINC000750807956    0.0700
      3 O3         -6.1882    4.2279   54.7242 O.3     1  ZINC000750807956   -0.3600
      4 C4         -6.9671    4.5215   53.6711 C.2     1  ZINC000750807956    0.4800
      5 O5         -7.2926    5.6660   53.4610 O.2     1  ZINC000750807956   -0.4900
      6 C6         -7.4356    3.4238   52.7511 C.3     1  ZINC000750807956    0.1600
      7 H7         -8.3224    3.7542   52.2101 H       1  ZINC000750807956    0.1000
      8 C8         -7.7706    2.1742   53.5714 C.3     1  ZINC000750807956   -0.1300
      9 C9         -8.1114    1.0225   52.6230 C.3     1  ZINC000750807956   -0.1200
     10 C10        -6.9008    0.7108   51.7403 C.3     1  ZINC000750807956   -0.1400
     11 C11        -6.5560    1.9439   50.8993 C.3     1  ZINC000750807956    0.1100
     12 N12        -6.3699    3.0940   51.7951 N.am    1  ZINC000750807956   -0.6100
     13 C13        -5.2410    3.8284   51.7440 C.2     1  ZINC000750807956    0.5100
     14 O14        -5.0994    4.7753   52.4887 O.2     1  ZINC000750807956   -0.5000
     15 C15        -4.1548    3.4734   50.7617 C.3     1  ZINC000750807956   -0.1400
     16 C16        -3.0510    4.5316   50.8173 C.3     1  ZINC000750807956    0.2100
     17 H17        -3.4767    5.4842   51.1324 H       1  ZINC000750807956    0.1000
     18 N18        -2.4501    4.6806   49.4896 N.am    1  ZINC000750807956   -0.7000
     19 C19        -1.8614    3.6246   48.8940 C.2     1  ZINC000750807956    0.6600
     20 O20        -1.8303    2.5485   49.4576 O.2     1  ZINC000750807956   -0.5600
     21 O21        -1.3076    3.7619   47.6745 O.3     1  ZINC000750807956   -0.3700
     22 C22        -0.6496    2.5951   47.1141 C.3     1  ZINC000750807956    0.1400
     23 C23        -0.0704    2.9461   45.7422 C.3     1  ZINC000750807956   -0.1800
     24 C24         0.4795    2.1498   48.0456 C.3     1  ZINC000750807956   -0.1400
     25 C25        -1.6646    1.4602   46.9640 C.3     1  ZINC000750807956   -0.1800
     26 C26        -1.9777    4.0968   51.8171 C.3     1  ZINC000750807956   -0.1800
     27 C27        -0.5911    4.7298   51.6848 C.3     1  ZINC000750807956   -0.1700
     28 C28        -1.5075    5.1303   52.8427 C.3     1  ZINC000750807956   -0.1800
     29 H29        -4.5494    4.2539   56.8428 H       1  ZINC000750807956    0.0600
     30 H30        -5.6563    5.1180   57.9367 H       1  ZINC000750807956    0.0800
     31 H31        -6.1013    3.5146   57.3047 H       1  ZINC000750807956    0.0700
     32 H32        -7.3153    5.3128   56.1041 H       1  ZINC000750807956    0.0700
     33 H33        -5.7633    6.0522   55.6423 H       1  ZINC000750807956    0.0600
     34 H34        -6.9112    1.8994   54.1831 H       1  ZINC000750807956    0.0800
     35 H35        -8.6253    2.3801   54.2157 H       1  ZINC000750807956    0.0800
     36 H36        -8.3741    0.1388   53.2045 H       1  ZINC000750807956    0.0800
     37 H37        -8.9553    1.3073   51.9945 H       1  ZINC000750807956    0.0700
     38 H38        -6.0495    0.4499   52.3692 H       1  ZINC000750807956    0.0700
     39 H39        -7.1364   -0.1248   51.0813 H       1  ZINC000750807956    0.0800
     40 H40        -5.6367    1.7613   50.3429 H       1  ZINC000750807956    0.0900
     41 H41        -7.3704    2.1521   50.2052 H       1  ZINC000750807956    0.0800
     42 H42        -3.7377    2.4995   51.0175 H       1  ZINC000750807956    0.1200
     43 H43        -4.5726    3.4368   49.7555 H       1  ZINC000750807956    0.1100
     44 H44        -2.4759    5.5393   49.0391 H       1  ZINC000750807956    0.4000
     45 H45         0.6526    3.7547   45.8490 H       1  ZINC000750807956    0.0600
     46 H46         0.4235    2.0702   45.3215 H       1  ZINC000750807956    0.0700
     47 H47        -0.8748    3.2633   45.0785 H       1  ZINC000750807956    0.0900
     48 H48         0.0668    1.8998   49.0230 H       1  ZINC000750807956    0.0700
     49 H49         0.9735    1.2739   47.6250 H       1  ZINC000750807956    0.0800
     50 H50         1.2026    2.9584   48.1525 H       1  ZINC000750807956    0.0700
     51 H51        -2.4690    1.7774   46.3004 H       1  ZINC000750807956    0.0900
     52 H52        -1.1706    0.5843   46.5434 H       1  ZINC000750807956    0.0700
     53 H53        -2.0772    1.2101   47.9414 H       1  ZINC000750807956    0.0600
     54 H54        -2.0277    3.0562   52.1378 H       1  ZINC000750807956    0.1100
     55 H55         0.2715    4.1057   51.9182 H       1  ZINC000750807956    0.0900
     56 H56        -0.4436    5.4560   50.8853 H       1  ZINC000750807956    0.0900
     57 H57        -1.9629    6.1199   52.8050 H       1  ZINC000750807956    0.1200
     58 H58        -1.2478    4.7695   53.8379 H       1  ZINC000750807956    0.0900
@<TRIPOS>BOND
     1     1     2    1
     2     1    29    1
     3     1    30    1
     4     1    31    1
     5     2     3    1
     6     2    32    1
     7     2    33    1
     8     3     4    1
     9     4     5    2
    10     4     6    1
    11     6     7    1
    12     6    12    1
    13     6     8    1
    14     8     9    1
    15     8    34    1
    16     8    35    1
    17     9    10    1
    18     9    36    1
    19     9    37    1
    20    10    11    1
    21    10    38    1
    22    10    39    1
    23    11    12    1
    24    11    40    1
    25    11    41    1
    26    12    13   am
    27    13    14    2
    28    13    15    1
    29    15    16    1
    30    15    42    1
    31    15    43    1
    32    16    17    1
    33    16    18    1
    34    16    26    1
    35    18    19   am
    36    18    44    1
    37    19    20    2
    38    19    21    1
    39    21    22    1
    40    22    23    1
    41    22    24    1
    42    22    25    1
    43    23    45    1
    44    23    46    1
    45    23    47    1
    46    24    48    1
    47    24    49    1
    48    24    50    1
    49    25    51    1
    50    25    52    1
    51    25    53    1
    52    26    28    1
    53    26    27    1
    54    26    54    1
    55    27    28    1
    56    27    55    1
    57    27    56    1
    58    28    57    1
    59    28    58    1
@<TRIPOS>SUBSTRUCTURE
     1 ZINC000750807956        1 TEMP              0 ****  ****    0 ROOT


##########                                Name:    ZINC000065993627
##########                DOCK_Rotatable_Bonds:                   7
##########                         Heavy_Atoms:                  28
##########                    Molecular_Weight:             382.462
##########                DOCK_Rotatable_Bonds:                   7
##########                       Formal_Charge:          -0.0200002
##########                     HBond_Acceptors:                   7
##########                        HBond_Donors:                   2
##########                         Heavy_Atoms:                  28
##########                          Grid_Score:          -28.909170
##########                     Grid_vdw_energy:          -27.414736
##########                      Grid_es_energy:           -1.494435
##########           Internal_energy_repulsive:           11.700375

@<TRIPOS>MOLECULE
ZINC000065993627
 54 56 1 0 0
SMALL
USER_CHARGES


@<TRIPOS>ATOM
      1 C1         -3.7368    3.9937   53.0261 C.3     1  ZINC000065993627   -0.1200
      2 C2         -3.6516    3.3623   51.6605 C.ar    1  ZINC000065993627   -0.0700
      3 C3         -2.6447    3.7314   50.7911 C.ar    1  ZINC000065993627   -0.1800
      4 C4         -2.5662    3.1494   49.5323 C.ar    1  ZINC000065993627    0.2000
      5 N5         -1.5456    3.5230   48.6511 N.pl3   1  ZINC000065993627   -0.6400
      6 C6         -1.2566    4.9412   48.4241 C.3     1  ZINC000065993627    0.1000
      7 C7         -0.7659    2.4961   47.9557 C.3     1  ZINC000065993627    0.0900
      8 C8         -3.5005    2.1965   49.1487 C.ar    1  ZINC000065993627   -0.1800
      9 C9         -4.5075    1.8277   50.0187 C.ar    1  ZINC000065993627   -0.0800
     10 C10        -4.5824    2.4053   51.2787 C.ar    1  ZINC000065993627    0.1100
     11 N11        -5.6047    2.0303   52.1620 N.am    1  ZINC000065993627   -0.6800
     12 C12        -6.8930    2.2547   51.8358 C.2     1  ZINC000065993627    0.7000
     13 O13        -7.1688    2.7823   50.7756 O.2     1  ZINC000065993627   -0.5700
     14 N14        -7.8756    1.8942   52.6849 N.am    1  ZINC000065993627   -0.7400
     15 C15        -9.2761    2.1365   52.3296 C.3     1  ZINC000065993627    0.2100
     16 H16        -9.3874    2.1009   51.2460 H       1  ZINC000065993627    0.1000
     17 C17        -9.7010    3.5145   52.8410 C.3     1  ZINC000065993627   -0.1600
     18 C18       -10.1444    1.0776   52.9589 C.ar    1  ZINC000065993627   -0.1200
     19 C19        -9.9071    0.6745   54.2602 C.ar    1  ZINC000065993627   -0.0800
     20 C20       -10.7010   -0.2958   54.8398 C.ar    1  ZINC000065993627   -0.1500
     21 C21       -11.7385   -0.8664   54.1143 C.ar    1  ZINC000065993627    0.1800
     22 N22       -12.5451   -1.8495   54.6988 N.am    1  ZINC000065993627   -0.5700
     23 C23       -14.0154   -1.8378   54.7377 C.3     1  ZINC000065993627    0.0600
     24 C24       -14.3731   -3.1355   55.4875 C.3     1  ZINC000065993627    0.0400
     25 O25       -13.0804   -3.7361   55.7895 O.3     1  ZINC000065993627   -0.3200
     26 C26       -12.1039   -2.9578   55.3095 C.2     1  ZINC000065993627    0.6400
     27 O27       -10.9246   -3.2267   55.4246 O.2     1  ZINC000065993627   -0.5000
     28 C28       -11.9742   -0.4594   52.8078 C.ar    1  ZINC000065993627   -0.1500
     29 C29       -11.1802    0.5153   52.2358 C.ar    1  ZINC000065993627   -0.0800
     30 H30        -3.1529    3.4065   53.7350 H       1  ZINC000065993627    0.0700
     31 H31        -3.3417    5.0085   52.9826 H       1  ZINC000065993627    0.0700
     32 H32        -4.7776    4.0225   53.3488 H       1  ZINC000065993627    0.0600
     33 H33        -1.9184    4.4728   51.0895 H       1  ZINC000065993627    0.1200
     34 H34        -0.5107    5.2797   49.1432 H       1  ZINC000065993627    0.0500
     35 H35        -0.8738    5.0766   47.4126 H       1  ZINC000065993627    0.0700
     36 H36        -2.1704    5.5225   48.5475 H       1  ZINC000065993627    0.0700
     37 H37        -1.1792    1.5126   48.1792 H       1  ZINC000065993627    0.0800
     38 H38        -0.8091    2.6728   46.8811 H       1  ZINC000065993627    0.0500
     39 H39         0.2709    2.5389   48.2895 H       1  ZINC000065993627    0.0500
     40 H40        -3.4399    1.7442   48.1698 H       1  ZINC000065993627    0.1300
     41 H41        -5.2343    1.0865   49.7203 H       1  ZINC000065993627    0.1500
     42 H42        -5.3847    1.6094   53.0077 H       1  ZINC000065993627    0.4000
     43 H43        -7.6556    1.4745   53.5312 H       1  ZINC000065993627    0.4000
     44 H44        -9.0729    4.2804   52.3858 H       1  ZINC000065993627    0.0700
     45 H45       -10.7429    3.6948   52.5767 H       1  ZINC000065993627    0.0700
     46 H46        -9.5896    3.5502   53.9247 H       1  ZINC000065993627    0.0600
     47 H47        -9.0998    1.1184   54.8238 H       1  ZINC000065993627    0.1300
     48 H48       -10.5150   -0.6105   55.8560 H       1  ZINC000065993627    0.1600
     49 H49       -14.3771   -0.9673   55.2850 H       1  ZINC000065993627    0.1000
     50 H50       -14.4252   -1.8537   53.7278 H       1  ZINC000065993627    0.1000
     51 H51       -14.9134   -2.9092   56.4067 H       1  ZINC000065993627    0.1100
     52 H52       -14.9615   -3.7954   54.8499 H       1  ZINC000065993627    0.1100
     53 H53       -12.7800   -0.9016   52.2409 H       1  ZINC000065993627    0.1300
     54 H54       -11.3632    0.8325   51.2198 H       1  ZINC000065993627    0.1300
@<TRIPOS>BOND
     1     1     2    1
     2     1    30    1
     3     1    31    1
     4     1    32    1
     5     2    10   ar
     6     2     3   ar
     7     3     4   ar
     8     3    33    1
     9     4     5    1
    10     4     8   ar
    11     5     6    1
    12     5     7    1
    13     6    34    1
    14     6    35    1
    15     6    36    1
    16     7    37    1
    17     7    38    1
    18     7    39    1
    19     8     9   ar
    20     8    40    1
    21     9    10   ar
    22     9    41    1
    23    10    11    1
    24    11    12   am
    25    11    42    1
    26    12    13    2
    27    12    14   am
    28    14    15    1
    29    14    43    1
    30    15    16    1
    31    15    17    1
    32    15    18    1
    33    17    44    1
    34    17    45    1
    35    17    46    1
    36    18    29   ar
    37    18    19   ar
    38    19    20   ar
    39    19    47    1
    40    20    21   ar
    41    20    48    1
    42    21    22    1
    43    21    28   ar
    44    22    26   am
    45    22    23    1
    46    23    24    1
    47    23    49    1
    48    23    50    1
    49    24    25    1
    50    24    51    1
    51    24    52    1
    52    25    26    1
    53    26    27    2
    54    28    29   ar
    55    28    53    1
    56    29    54    1
@<TRIPOS>SUBSTRUCTURE
     1 ZINC000065993627        1 TEMP              0 ****  ****    0 ROOT


##########                                Name:    ZINC000350493047
##########                DOCK_Rotatable_Bonds:                   7
##########                         Heavy_Atoms:                  24
##########                    Molecular_Weight:             330.387
##########                DOCK_Rotatable_Bonds:                   7
##########                       Formal_Charge:          -0.0300002
##########                     HBond_Acceptors:                   7
##########                        HBond_Donors:                   3
##########                         Heavy_Atoms:                  24
##########                          Grid_Score:          -28.892860
##########                     Grid_vdw_energy:          -29.380369
##########                      Grid_es_energy:            0.487508
##########           Internal_energy_repulsive:           13.723039

@<TRIPOS>MOLECULE
ZINC000350493047
 46 48 1 0 0
SMALL
USER_CHARGES


@<TRIPOS>ATOM
      1 C1          3.0746    0.1557   47.4513 C.3     1  <0>        -0.1600
      2 C2          3.6946    0.6184   48.7713 C.3     1  <0>         0.2600
      3 H3          4.5065    1.3162   48.5664 H       1  <0>         0.1200
      4 N4          4.2187   -0.5410   49.4976 N.am    1  <0>        -0.7400
      5 C5          3.3719   -1.4646   49.9936 C.2     1  <0>         0.7100
      6 N6          3.8542   -2.5321   50.6604 N.am    1  <0>        -0.8600
      7 O7          2.1728   -1.3350   49.8397 O.2     1  <0>        -0.5900
      8 C8          2.6437    1.3020   49.6076 C.2     1  <0>         0.1700
      9 N9          2.8257    1.8469   50.7742 N.2     1  <0>        -0.3800
     10 O10         1.7874    2.3158   51.1906 O.3     1  <0>         0.0900
     11 C11         0.8071    2.1079   50.2977 C.2     1  <0>         0.2400
     12 C12        -0.6042    2.5232   50.4246 C.ar    1  <0>        -0.0800
     13 C13        -1.5011    2.2843   49.3806 C.ar    1  <0>        -0.0200
     14 C14        -2.8170    2.6733   49.5029 C.ar    1  <0>        -0.2200
     15 C15        -3.2524    3.3029   50.6625 C.ar    1  <0>         0.1700
     16 O16        -4.5500    3.6850   50.7790 O.3     1  <0>        -0.3000
     17 C17        -5.3822    2.9029   51.6380 C.3     1  <0>         0.0800
     18 C18        -6.4691    3.7931   52.2438 C.3     1  <0>        -0.1500
     19 C19        -7.3601    2.9557   53.1635 C.3     1  <0>        -0.1200
     20 C20        -8.0126    1.8317   52.3564 C.3     1  <0>        -0.1300
     21 C21        -6.9257    0.9415   51.7505 C.3     1  <0>        -0.1200
     22 C22        -6.0347    1.7788   50.8308 C.3     1  <0>        -0.1200
     23 C23        -2.3636    3.5419   51.7033 C.ar    1  <0>        -0.1600
     24 C24        -1.0474    3.1508   51.5913 C.ar    1  <0>        -0.0300
     25 N25         1.3523    1.4635   49.2803 N.2     1  <0>        -0.4700
     26 H26         2.2627   -0.5421   47.6562 H       1  <0>         0.0600
     27 H27         2.6846    1.0182   46.9110 H       1  <0>         0.0700
     28 H28         3.8347   -0.3388   46.8466 H       1  <0>         0.0800
     29 H29         5.1753   -0.6438   49.6214 H       1  <0>         0.4000
     30 H30         3.2447   -3.1974   51.0164 H       1  <0>         0.4000
     31 H31         4.8107   -2.6349   50.7843 H       1  <0>         0.4200
     32 H32        -1.1633    1.7956   48.4787 H       1  <0>         0.1400
     33 H33        -3.5110    2.4889   48.6963 H       1  <0>         0.1400
     34 H34        -4.7776    2.4731   52.4367 H       1  <0>         0.0800
     35 H35        -6.0042    4.5939   52.8188 H       1  <0>         0.0700
     36 H36        -7.0737    4.2230   51.4451 H       1  <0>         0.0800
     37 H37        -6.7555    2.5259   53.9622 H       1  <0>         0.0600
     38 H38        -8.1345    3.5899   53.5951 H       1  <0>         0.0700
     39 H39        -8.6474    1.2351   53.0116 H       1  <0>         0.0700
     40 H40        -8.6172    2.2614   51.5577 H       1  <0>         0.0700
     41 H41        -6.3211    0.5117   52.5492 H       1  <0>         0.0700
     42 H42        -7.3906    0.1407   51.1755 H       1  <0>         0.0700
     43 H43        -6.6392    2.2087   50.0321 H       1  <0>         0.0800
     44 H44        -5.2603    1.1446   50.3992 H       1  <0>         0.0700
     45 H45        -2.7060    4.0312   52.6033 H       1  <0>         0.1400
     46 H46        -0.3572    3.3367   52.4009 H       1  <0>         0.1400
@<TRIPOS>BOND
     1     1     2    1
     2     1    26    1
     3     1    27    1
     4     1    28    1
     5     2     3    1
     6     2     4    1
     7     2     8    1
     8     4     5   am
     9     4    29    1
    10     5     6   am
    11     5     7    2
    12     6    30    1
    13     6    31    1
    14     8    25    1
    15     8     9    2
    16     9    10    1
    17    10    11    1
    18    11    12    1
    19    11    25    2
    20    12    24   ar
    21    12    13   ar
    22    13    14   ar
    23    13    32    1
    24    14    15   ar
    25    14    33    1
    26    15    16    1
    27    15    23   ar
    28    16    17    1
    29    17    22    1
    30    17    18    1
    31    17    34    1
    32    18    19    1
    33    18    35    1
    34    18    36    1
    35    19    20    1
    36    19    37    1
    37    19    38    1
    38    20    21    1
    39    20    39    1
    40    20    40    1
    41    21    22    1
    42    21    41    1
    43    21    42    1
    44    22    43    1
    45    22    44    1
    46    23    24   ar
    47    23    45    1
    48    24    46    1
@<TRIPOS>SUBSTRUCTURE
     1 <0>         1 TEMP              0 ****  ****    0 ROOT


##########                                Name:    ZINC000444811358
##########                DOCK_Rotatable_Bonds:                  11
##########                         Heavy_Atoms:                  27
##########                    Molecular_Weight:             374.455
##########                DOCK_Rotatable_Bonds:                  11
##########                       Formal_Charge:          0.00999966
##########                     HBond_Acceptors:                   6
##########                        HBond_Donors:                   2
##########                         Heavy_Atoms:                  27
##########                          Grid_Score:          -28.871332
##########                     Grid_vdw_energy:          -27.702972
##########                      Grid_es_energy:           -1.168361
##########           Internal_energy_repulsive:           26.799658

@<TRIPOS>MOLECULE
ZINC000444811358
 54 55 1 0 0
SMALL
USER_CHARGES


@<TRIPOS>ATOM
      1 C1         -0.8985    2.5253   59.6234 C.3     1  ZINC000444811358   -0.1100
      2 C2         -1.0011    2.7581   58.1381 C.ar    1  ZINC000444811358   -0.1300
      3 C3         -2.1793    3.2341   57.5942 C.ar    1  ZINC000444811358   -0.0700
      4 C4         -2.2771    3.4483   56.2329 C.ar    1  ZINC000444811358   -0.1500
      5 C5         -1.1903    3.1856   55.4094 C.ar    1  ZINC000444811358    0.1700
      6 N6         -1.2874    3.4024   54.0305 N.am    1  ZINC000444811358   -0.6800
      7 C7         -0.7602    4.5163   53.4847 C.2     1  ZINC000444811358    0.5200
      8 O8         -0.2015    5.3306   54.1888 O.2     1  ZINC000444811358   -0.5000
      9 C9         -0.8648    4.7497   51.9995 C.3     1  ZINC000444811358    0.0200
     10 N10        -2.2469    4.5113   51.5626 N.3     1  ZINC000444811358   -0.5000
     11 C11        -3.1445    5.5634   52.0579 C.3     1  ZINC000444811358    0.0200
     12 C12        -4.3815    4.9224   52.6903 C.3     1  ZINC000444811358    0.1100
     13 H13        -4.2006    3.8588   52.8452 H       1  ZINC000444811358    0.1200
     14 O14        -4.6524    5.5475   53.9464 O.3     1  ZINC000444811358   -0.5400
     15 C15        -5.5825    5.1053   51.7601 C.3     1  ZINC000444811358    0.0300
     16 O16        -5.6595    3.9993   50.8585 O.3     1  ZINC000444811358   -0.3000
     17 C17        -6.1350    2.8283   51.3578 C.ar    1  ZINC000444811358    0.1300
     18 C18        -6.1514    1.6903   50.5645 C.ar    1  ZINC000444811358   -0.2100
     19 C19        -6.6347    0.5009   51.0746 C.ar    1  ZINC000444811358   -0.0800
     20 C20        -7.1022    0.4442   52.3746 C.ar    1  ZINC000444811358   -0.1600
     21 C21        -7.0873    1.5770   53.1672 C.ar    1  ZINC000444811358   -0.0800
     22 C22        -6.5993    2.7673   52.6638 C.ar    1  ZINC000444811358   -0.1500
     23 C23        -2.3246    4.3985   50.1000 C.3     1  ZINC000444811358    0.0700
     24 C24        -1.4931    5.5108   49.4578 C.3     1  ZINC000444811358   -0.1400
     25 C25        -1.7790    3.0373   49.6638 C.3     1  ZINC000444811358   -0.1900
     26 C26        -0.0070    2.7079   55.9567 C.ar    1  ZINC000444811358   -0.1500
     27 C27         0.0873    2.5001   57.3209 C.ar    1  ZINC000444811358    0.1200
     28 F28         1.2378    2.0353   57.8552 F       1  ZINC000444811358   -0.1300
     29 H29        -0.5479    3.4351   60.1105 H       1  ZINC000444811358    0.0700
     30 H30        -1.8785    2.2566   60.0177 H       1  ZINC000444811358    0.0700
     31 H31        -0.1948    1.7156   59.8165 H       1  ZINC000444811358    0.0700
     32 H32        -3.0248    3.4386   58.2344 H       1  ZINC000444811358    0.1400
     33 H33        -3.1985    3.8196   55.8094 H       1  ZINC000444811358    0.1300
     34 H34        -1.7342    2.7511   53.4674 H       1  ZINC000444811358    0.4100
     35 H35        -0.5844    5.7783   51.7728 H       1  ZINC000444811358    0.1300
     36 H36        -0.1954    4.0669   51.4763 H       1  ZINC000444811358    0.0700
     37 H37        -2.6241    6.1632   52.8046 H       1  ZINC000444811358    0.0500
     38 H38        -3.4497    6.2009   51.2282 H       1  ZINC000444811358    0.1000
     39 H39        -5.3113    5.0848   54.4821 H       1  ZINC000444811358    0.3700
     40 H40        -6.4963    5.1557   52.3522 H       1  ZINC000444811358    0.0600
     41 H41        -5.4656    6.0289   51.1932 H       1  ZINC000444811358    0.0700
     42 H42        -5.7869    1.7343   49.5487 H       1  ZINC000444811358    0.1300
     43 H43        -6.6477   -0.3852   50.4574 H       1  ZINC000444811358    0.1200
     44 H44        -7.4800   -0.4865   52.7715 H       1  ZINC000444811358    0.1200
     45 H45        -7.4533    1.5301   54.1822 H       1  ZINC000444811358    0.1300
     46 H46        -6.5879    3.6519   53.2832 H       1  ZINC000444811358    0.1300
     47 H47        -3.3633    4.4922   49.7831 H       1  ZINC000444811358    0.0900
     48 H48        -0.4367    5.3410   49.6660 H       1  ZINC000444811358    0.0500
     49 H49        -1.6558    5.5099   48.3801 H       1  ZINC000444811358    0.0600
     50 H50        -1.7945    6.4738   49.8700 H       1  ZINC000444811358    0.0700
     51 H51        -2.3714    2.2449   50.1212 H       1  ZINC000444811358    0.0500
     52 H52        -1.8367    2.9537   48.5785 H       1  ZINC000444811358    0.0700
     53 H53        -0.7404    2.9436   49.9806 H       1  ZINC000444811358    0.0600
     54 H54         0.8398    2.5024   55.3186 H       1  ZINC000444811358    0.1500
@<TRIPOS>BOND
     1     1     2    1
     2     1    29    1
     3     1    30    1
     4     1    31    1
     5     2    27   ar
     6     2     3   ar
     7     3     4   ar
     8     3    32    1
     9     4     5   ar
    10     4    33    1
    11     5     6    1
    12     5    26   ar
    13     6     7   am
    14     6    34    1
    15     7     8    2
    16     7     9    1
    17     9    10    1
    18     9    35    1
    19     9    36    1
    20    10    11    1
    21    10    23    1
    22    11    12    1
    23    11    37    1
    24    11    38    1
    25    12    13    1
    26    12    14    1
    27    12    15    1
    28    14    39    1
    29    15    16    1
    30    15    40    1
    31    15    41    1
    32    16    17    1
    33    17    22   ar
    34    17    18   ar
    35    18    19   ar
    36    18    42    1
    37    19    20   ar
    38    19    43    1
    39    20    21   ar
    40    20    44    1
    41    21    22   ar
    42    21    45    1
    43    22    46    1
    44    23    24    1
    45    23    25    1
    46    23    47    1
    47    24    48    1
    48    24    49    1
    49    24    50    1
    50    25    51    1
    51    25    52    1
    52    25    53    1
    53    26    27   ar
    54    26    54    1
    55    27    28    1
@<TRIPOS>SUBSTRUCTURE
     1 ZINC000444811358        1 TEMP              0 ****  ****    0 ROOT


##########                                Name:    ZINC000654672208
##########                DOCK_Rotatable_Bonds:                   5
##########                         Heavy_Atoms:                  25
##########                    Molecular_Weight:             365.497
##########                DOCK_Rotatable_Bonds:                   5
##########                       Formal_Charge:           0.0100001
##########                     HBond_Acceptors:                   7
##########                        HBond_Donors:                   1
##########                         Heavy_Atoms:                  25
##########                          Grid_Score:          -28.869246
##########                     Grid_vdw_energy:          -29.517246
##########                      Grid_es_energy:            0.648000
##########           Internal_energy_repulsive:           13.682056

@<TRIPOS>MOLECULE
ZINC000654672208
 52 54 1 0 0
SMALL
USER_CHARGES


@<TRIPOS>ATOM
      1 C1         -7.9819    2.7339   51.4251 C.3     1  ZINC000654672208   -0.1100
      2 C2         -6.5083    2.8962   51.1549 C.ar    1  ZINC000654672208   -0.1300
      3 C3         -5.8178    1.9356   50.4409 C.ar    1  ZINC000654672208    0.1000
      4 N4         -4.5282    2.0709   50.2002 N.ar    1  ZINC000654672208   -0.4700
      5 C5         -3.8496    3.1182   50.6260 C.ar    1  ZINC000654672208    0.1200
      6 C6         -2.3770    3.2245   50.3238 C.3     1  ZINC000654672208   -0.0900
      7 C7         -2.0671    2.4739   49.0271 C.3     1  ZINC000654672208    0.1500
      8 N8         -0.6277    2.5330   48.7607 N.am    1  ZINC000654672208   -0.7500
      9 C9         -0.1798    2.6097   47.4919 C.2     1  ZINC000654672208    0.7100
     10 O10        -0.9703    2.6299   46.5683 O.2     1  ZINC000654672208   -0.5800
     11 N11         1.1443    2.6640   47.2468 N.am    1  ZINC000654672208   -0.6300
     12 C12         1.6472    2.7479   45.8689 C.3     1  ZINC000654672208    0.1300
     13 C13         2.6605    1.6209   45.6456 C.3     1  ZINC000654672208   -0.1400
     14 C14         3.7495    1.6988   46.7174 C.3     1  ZINC000654672208   -0.1100
     15 C15         3.1186    1.5099   48.1021 C.3     1  ZINC000654672208   -0.0600
     16 C16         4.2177    1.5754   49.1676 C.3     1  ZINC000654672208   -0.1200
     17 C17         3.7923    0.7014   50.3754 C.3     1  ZINC000654672208   -0.5800
     18 S18         3.1006   -0.7723   49.5216 S.o2    1  ZINC000654672208    2.3800
     19 O19         4.1612   -1.5882   49.0436 O.2     1  ZINC000654672208   -0.9300
     20 O20         2.0663   -1.3404   50.3132 O.2     1  ZINC000654672208   -0.9300
     21 C21         2.3704    0.1660   48.1279 C.3     1  ZINC000654672208   -0.5800
     22 C22         2.1108    2.6466   48.3527 C.3     1  ZINC000654672208    0.1200
     23 C23        -4.4732    4.1197   51.3462 C.ar    1  ZINC000654672208   -0.1200
     24 C24        -3.6901    5.3134   51.8287 C.3     1  ZINC000654672208   -0.1200
     25 C25        -5.8292    4.0145   51.6147 C.ar    1  ZINC000654672208   -0.0800
     26 H26        -8.5521    3.1857   50.6134 H       1  ZINC000654672208    0.0700
     27 H27        -8.2242    1.6733   51.4928 H       1  ZINC000654672208    0.0700
     28 H28        -8.2353    3.2252   52.3645 H       1  ZINC000654672208    0.0700
     29 H29        -6.3402    1.0635   50.0762 H       1  ZINC000654672208    0.1600
     30 H30        -2.1042    4.2738   50.2104 H       1  ZINC000654672208    0.0900
     31 H31        -1.8055    2.7869   51.1422 H       1  ZINC000654672208    0.0900
     32 H32        -2.3758    1.4333   49.1269 H       1  ZINC000654672208    0.0700
     33 H33        -2.6086    2.9359   48.2015 H       1  ZINC000654672208    0.0700
     34 H34         0.0029    2.5168   49.4976 H       1  ZINC000654672208    0.3900
     35 H35         0.8181    2.6380   45.1699 H       1  ZINC000654672208    0.1000
     36 H36         2.1326    3.7117   45.7150 H       1  ZINC000654672208    0.0700
     37 H37         2.1538    0.6580   45.7111 H       1  ZINC000654672208    0.0700
     38 H38         3.1124    1.7282   44.6594 H       1  ZINC000654672208    0.0800
     39 H39         4.4867    0.9149   46.5440 H       1  ZINC000654672208    0.0800
     40 H40         4.2368    2.6727   46.6700 H       1  ZINC000654672208    0.0800
     41 H41         5.1527    1.1980   48.7534 H       1  ZINC000654672208    0.1000
     42 H42         4.3530    2.6073   49.4916 H       1  ZINC000654672208    0.1000
     43 H43         4.6533    0.4320   50.9872 H       1  ZINC000654672208    0.1400
     44 H44         3.0304    1.2021   50.9727 H       1  ZINC000654672208    0.1400
     45 H45         1.3066    0.3297   48.2996 H       1  ZINC000654672208    0.1400
     46 H46         2.5241   -0.3694   47.1911 H       1  ZINC000654672208    0.1400
     47 H47         2.6385    3.5992   48.3998 H       1  ZINC000654672208    0.0800
     48 H48         1.5865    2.4699   49.2918 H       1  ZINC000654672208    0.0800
     49 H49        -3.7166    6.0960   51.0704 H       1  ZINC000654672208    0.0800
     50 H50        -4.1309    5.6877   52.7527 H       1  ZINC000654672208    0.0700
     51 H51        -2.6565    5.0199   52.0121 H       1  ZINC000654672208    0.0700
     52 H52        -6.3429    4.7817   52.1750 H       1  ZINC000654672208    0.1300
@<TRIPOS>BOND
     1     1     2    1
     2     1    26    1
     3     1    27    1
     4     1    28    1
     5     2    25   ar
     6     2     3   ar
     7     3     4   ar
     8     3    29    1
     9     4     5   ar
    10     5     6    1
    11     5    23   ar
    12     6     7    1
    13     6    30    1
    14     6    31    1
    15     7     8    1
    16     7    32    1
    17     7    33    1
    18     8     9   am
    19     8    34    1
    20     9    10    2
    21     9    11   am
    22    11    22    1
    23    11    12    1
    24    12    13    1
    25    12    35    1
    26    12    36    1
    27    13    14    1
    28    13    37    1
    29    13    38    1
    30    14    15    1
    31    14    39    1
    32    14    40    1
    33    15    21    1
    34    15    16    1
    35    15    22    1
    36    16    17    1
    37    16    41    1
    38    16    42    1
    39    17    18    1
    40    17    43    1
    41    17    44    1
    42    18    19    2
    43    18    20    2
    44    18    21    1
    45    21    45    1
    46    21    46    1
    47    22    47    1
    48    22    48    1
    49    23    24    1
    50    23    25   ar
    51    24    49    1
    52    24    50    1
    53    24    51    1
    54    25    52    1
@<TRIPOS>SUBSTRUCTURE
     1 ZINC000654672208        1 TEMP              0 ****  ****    0 ROOT


##########                                Name:    ZINC000945148121
##########                DOCK_Rotatable_Bonds:                   6
##########                         Heavy_Atoms:                  24
##########                    Molecular_Weight:             332.446
##########                DOCK_Rotatable_Bonds:                   6
##########                       Formal_Charge:           0.0100009
##########                     HBond_Acceptors:                   6
##########                        HBond_Donors:                   2
##########                         Heavy_Atoms:                  24
##########                          Grid_Score:          -28.866060
##########                     Grid_vdw_energy:          -27.048185
##########                      Grid_es_energy:           -1.817875
##########           Internal_energy_repulsive:           18.496773

@<TRIPOS>MOLECULE
ZINC000945148121
 52 54 1 0 0
SMALL
USER_CHARGES


@<TRIPOS>ATOM
      1 O1         -3.5548    5.8284   54.2264 O.2     1  ZINC000945148121   -0.5100
      2 C2         -3.2343    4.7315   54.6326 C.2     1  ZINC000945148121    0.5200
      3 C3         -3.1201    4.4804   56.1141 C.3     1  ZINC000945148121   -0.0500
      4 C4         -2.0003    3.5058   56.3736 C.2     1  ZINC000945148121    0.0100
      5 C5         -0.7691    3.5520   55.8302 C.2     1  ZINC000945148121   -0.0500
      6 N6         -0.0736    2.4861   56.3339 N.pl3   1  ZINC000945148121   -0.5700
      7 C7         -0.9046    1.8252   57.1683 C.2     1  ZINC000945148121    0.1800
      8 N8         -2.0536    2.4437   57.1910 N.2     1  ZINC000945148121   -0.4700
      9 N9         -2.9858    3.7355   53.7592 N.am    1  ZINC000945148121   -0.7300
     10 C10        -3.0968    3.9796   52.3190 C.3     1  ZINC000945148121    0.1500
     11 C11        -1.6984    4.1525   51.7219 C.3     1  ZINC000945148121   -0.1400
     12 C12        -1.8199    4.4418   50.2225 C.3     1  ZINC000945148121    0.1100
     13 N13        -2.6150    3.3757   49.5980 N.am    1  ZINC000945148121   -0.6100
     14 C14        -2.1380    2.6950   48.5370 C.2     1  ZINC000945148121    0.5200
     15 O15        -2.8047    1.8181   48.0296 O.2     1  ZINC000945148121   -0.5400
     16 C16        -0.7764    3.0237   47.9812 C.3     1  ZINC000945148121   -0.1000
     17 C17         0.2866    2.4126   48.8534 C.3     1  ZINC000945148121   -0.1200
     18 C18         1.5588    3.2785   48.9265 C.3     1  ZINC000945148121   -0.1200
     19 C19         1.9572    3.8715   47.5616 C.3     1  ZINC000945148121   -0.1200
     20 C20         1.8073    2.8819   46.4380 C.3     1  ZINC000945148121   -0.1200
     21 C21         0.4188    3.0769   45.7954 C.3     1  ZINC000945148121   -0.1200
     22 C22        -0.6414    2.4376   46.5608 C.3     1  ZINC000945148121   -0.1000
     23 C23        -3.9397    3.0652   50.1526 C.3     1  ZINC000945148121    0.1100
     24 C24        -3.7943    2.7913   51.6528 C.3     1  ZINC000945148121   -0.1400
     25 H25        -2.9105    5.4194   56.6267 H       1  ZINC000945148121    0.1000
     26 H26        -4.0568    4.0649   56.4856 H       1  ZINC000945148121    0.1000
     27 H27        -0.4013    4.2883   55.1309 H       1  ZINC000945148121    0.1800
     28 H28         0.8447    2.2497   56.1296 H       1  ZINC000945148121    0.4200
     29 H29        -0.6579    0.9347   57.7275 H       1  ZINC000945148121    0.2100
     30 H30        -2.7334    2.8571   54.0843 H       1  ZINC000945148121    0.4000
     31 H31        -3.6790    4.8850   52.1479 H       1  ZINC000945148121    0.0900
     32 H32        -1.1934    4.9843   52.2131 H       1  ZINC000945148121    0.0800
     33 H33        -1.1237    3.2384   51.8705 H       1  ZINC000945148121    0.0700
     34 H34        -2.3153    5.4014   50.0744 H       1  ZINC000945148121    0.0700
     35 H35        -0.8270    4.4678   49.7736 H       1  ZINC000945148121    0.1000
     36 H36        -0.6471    4.1054   47.9448 H       1  ZINC000945148121    0.1000
     37 H37        -0.1125    2.2865   49.8599 H       1  ZINC000945148121    0.0700
     38 H38         0.5494    1.4327   48.4551 H       1  ZINC000945148121    0.0700
     39 H39         1.3886    4.0950   49.6284 H       1  ZINC000945148121    0.0600
     40 H40         2.3805    2.6654   49.2967 H       1  ZINC000945148121    0.0700
     41 H41         1.3272    4.7369   47.3557 H       1  ZINC000945148121    0.0600
     42 H42         2.9963    4.1974   47.6082 H       1  ZINC000945148121    0.0600
     43 H43         2.5834    3.0544   45.6922 H       1  ZINC000945148121    0.0600
     44 H44         1.8906    1.8681   46.8295 H       1  ZINC000945148121    0.0700
     45 H45         0.2091    4.1441   45.7251 H       1  ZINC000945148121    0.0600
     46 H46         0.4324    2.6547   44.7906 H       1  ZINC000945148121    0.0600
     47 H47        -0.4277    1.3716   46.6377 H       1  ZINC000945148121    0.0700
     48 H48        -1.5862    2.5693   46.0334 H       1  ZINC000945148121    0.0700
     49 H49        -4.6079    3.9126   49.9988 H       1  ZINC000945148121    0.0700
     50 H50        -4.3454    2.1828   49.6577 H       1  ZINC000945148121    0.1000
     51 H51        -3.1999    1.8900   51.8022 H       1  ZINC000945148121    0.0700
     52 H52        -4.7813    2.6543   52.0949 H       1  ZINC000945148121    0.0800
@<TRIPOS>BOND
     1     1     2    2
     2     2     3    1
     3     2     9   am
     4     3     4    1
     5     3    25    1
     6     3    26    1
     7     4     8    1
     8     4     5    2
     9     5     6    1
    10     5    27    1
    11     6     7    1
    12     6    28    1
    13     7     8    2
    14     7    29    1
    15     9    10    1
    16     9    30    1
    17    10    24    1
    18    10    11    1
    19    10    31    1
    20    11    12    1
    21    11    32    1
    22    11    33    1
    23    12    13    1
    24    12    34    1
    25    12    35    1
    26    13    14   am
    27    13    23    1
    28    14    15    2
    29    14    16    1
    30    16    22    1
    31    16    17    1
    32    16    36    1
    33    17    18    1
    34    17    37    1
    35    17    38    1
    36    18    19    1
    37    18    39    1
    38    18    40    1
    39    19    20    1
    40    19    41    1
    41    19    42    1
    42    20    21    1
    43    20    43    1
    44    20    44    1
    45    21    22    1
    46    21    45    1
    47    21    46    1
    48    22    47    1
    49    22    48    1
    50    23    24    1
    51    23    49    1
    52    23    50    1
    53    24    51    1
    54    24    52    1
@<TRIPOS>SUBSTRUCTURE
     1 ZINC000945148121        1 TEMP              0 ****  ****    0 ROOT


##########                                Name:    ZINC001060733018
##########                DOCK_Rotatable_Bonds:                   7
##########                         Heavy_Atoms:                  24
##########                    Molecular_Weight:             342.429
##########                DOCK_Rotatable_Bonds:                   7
##########                       Formal_Charge:           0.0200001
##########                     HBond_Acceptors:                   6
##########                        HBond_Donors:                   2
##########                         Heavy_Atoms:                  24
##########                          Grid_Score:          -28.854626
##########                     Grid_vdw_energy:          -26.329828
##########                      Grid_es_energy:           -2.524797
##########           Internal_energy_repulsive:            6.777484

@<TRIPOS>MOLECULE
ZINC001060733018
 52 54 1 0 0
SMALL
USER_CHARGES


@<TRIPOS>ATOM
      1 O1         -0.8196    0.7584   61.9779 O.2     1  ZINC001060733018   -0.5000
      2 C2         -0.0107    0.2306   61.2445 C.2     1  ZINC001060733018    0.4700
      3 N3          0.3706    0.8462   60.1077 N.am    1  ZINC001060733018   -0.7100
      4 C4         -0.1952    2.1510   59.7560 C.3     1  ZINC001060733018    0.1200
      5 C5         -0.5056    2.1853   58.2583 C.3     1  ZINC001060733018   -0.1000
      6 H6         -0.8774    1.2107   57.9419 H       1  ZINC001060733018    0.0800
      7 C7         -1.5682    3.2509   57.9820 C.3     1  ZINC001060733018   -0.1100
      8 C8         -1.8786    3.2852   56.4842 C.3     1  ZINC001060733018   -0.1300
      9 C9         -0.6045    3.6219   55.7069 C.3     1  ZINC001060733018    0.1400
     10 H10        -0.2327    4.5965   56.0233 H       1  ZINC001060733018    0.0900
     11 N11        -0.9018    3.6548   54.2728 N.am    1  ZINC001060733018   -0.7300
     12 C12        -1.5163    4.7277   53.7363 C.2     1  ZINC001060733018    0.5200
     13 O13        -1.8220    5.6665   54.4406 O.2     1  ZINC001060733018   -0.5400
     14 C14        -1.8237    4.7607   52.2614 C.3     1  ZINC001060733018   -0.1000
     15 H15        -2.0602    5.7818   51.9622 H       1  ZINC001060733018    0.1000
     16 C16        -3.0200    3.8536   51.9694 C.3     1  ZINC001060733018   -0.1100
     17 C17        -3.3854    3.9383   50.4867 C.3     1  ZINC001060733018   -0.1200
     18 C18        -2.2174    3.4185   49.6429 C.3     1  ZINC001060733018   -0.0800
     19 C19        -0.9611    4.2246   49.9857 C.3     1  ZINC001060733018   -0.1300
     20 C20        -0.6659    5.4693   49.1492 C.3     1  ZINC001060733018   -0.1700
     21 C21         0.1891    4.2116   48.9796 C.3     1  ZINC001060733018   -0.1700
     22 C22        -0.6055    4.2672   51.4747 C.3     1  ZINC001060733018   -0.0600
     23 C23         0.4581    2.5564   55.9832 C.3     1  ZINC001060733018   -0.1200
     24 C24         0.7685    2.5221   57.4810 C.3     1  ZINC001060733018   -0.1100
     25 C25         0.5727   -1.1107   61.6071 C.3     1  ZINC001060733018    0.2600
     26 F26        -0.1878   -2.1252   61.0157 F       1  ZINC001060733018   -0.1700
     27 F27         1.8910   -1.1863   61.1449 F       1  ZINC001060733018   -0.1900
     28 H28         1.0196    0.4254   59.5225 H       1  ZINC001060733018    0.4100
     29 H29        -1.1130    2.3133   60.3212 H       1  ZINC001060733018    0.0800
     30 H30         0.5229    2.9351   59.9964 H       1  ZINC001060733018    0.0800
     31 H31        -2.4759    3.0110   58.5357 H       1  ZINC001060733018    0.0700
     32 H32        -1.1964    4.2254   58.2984 H       1  ZINC001060733018    0.0700
     33 H33        -2.6356    4.0443   56.2873 H       1  ZINC001060733018    0.0700
     34 H34        -2.2504    2.3107   56.1678 H       1  ZINC001060733018    0.0600
     35 H35        -0.6562    2.9044   53.7092 H       1  ZINC001060733018    0.4000
     36 H36        -2.7643    2.8244   52.2212 H       1  ZINC001060733018    0.0700
     37 H37        -3.8717    4.1728   52.5701 H       1  ZINC001060733018    0.0700
     38 H38        -4.2704    3.3315   50.2952 H       1  ZINC001060733018    0.0700
     39 H39        -3.5918    4.9754   50.2219 H       1  ZINC001060733018    0.0700
     40 H40        -2.0471    2.3651   49.8648 H       1  ZINC001060733018    0.0700
     41 H41        -2.4500    3.5375   48.5847 H       1  ZINC001060733018    0.0700
     42 H42        -1.3640    5.7153   48.3490 H       1  ZINC001060733018    0.0900
     43 H43        -0.2132    6.3212   49.6568 H       1  ZINC001060733018    0.0900
     44 H44         1.2043    4.2360   49.3755 H       1  ZINC001060733018    0.0900
     45 H45         0.0537    3.6298   48.0679 H       1  ZINC001060733018    0.0900
     46 H46         0.2307    4.9488   51.6310 H       1  ZINC001060733018    0.0700
     47 H47        -0.3324    3.2679   51.8136 H       1  ZINC001060733018    0.0800
     48 H48         1.3658    2.7962   55.4294 H       1  ZINC001060733018    0.0700
     49 H49         0.0863    1.5818   55.6668 H       1  ZINC001060733018    0.0700
     50 H50         1.1404    3.4966   57.7974 H       1  ZINC001060733018    0.0700
     51 H51         1.5256    1.7630   57.6779 H       1  ZINC001060733018    0.0700
     52 H52         0.5600   -1.2316   62.6903 H       1  ZINC001060733018    0.1400
@<TRIPOS>BOND
     1     1     2    2
     2     2     3   am
     3     2    25    1
     4     3     4    1
     5     3    28    1
     6     4     5    1
     7     4    29    1
     8     4    30    1
     9     5     6    1
    10     5    24    1
    11     5     7    1
    12     7     8    1
    13     7    31    1
    14     7    32    1
    15     8     9    1
    16     8    33    1
    17     8    34    1
    18     9    10    1
    19     9    11    1
    20     9    23    1
    21    11    12   am
    22    11    35    1
    23    12    13    2
    24    12    14    1
    25    14    15    1
    26    14    22    1
    27    14    16    1
    28    16    17    1
    29    16    36    1
    30    16    37    1
    31    17    18    1
    32    17    38    1
    33    17    39    1
    34    18    19    1
    35    18    40    1
    36    18    41    1
    37    19    21    1
    38    19    20    1
    39    19    22    1
    40    20    21    1
    41    20    42    1
    42    20    43    1
    43    21    44    1
    44    21    45    1
    45    22    46    1
    46    22    47    1
    47    23    24    1
    48    23    48    1
    49    23    49    1
    50    24    50    1
    51    24    51    1
    52    25    26    1
    53    25    27    1
    54    25    52    1
@<TRIPOS>SUBSTRUCTURE
     1 ZINC001060733018        1 TEMP              0 ****  ****    0 ROOT


##########                                Name:    ZINC000995593866
##########                DOCK_Rotatable_Bonds:                   7
##########                         Heavy_Atoms:                  24
##########                    Molecular_Weight:             342.389
##########                DOCK_Rotatable_Bonds:                   7
##########                       Formal_Charge:                0.03
##########                     HBond_Acceptors:                   8
##########                        HBond_Donors:                   1
##########                         Heavy_Atoms:                  24
##########                          Grid_Score:          -28.836300
##########                     Grid_vdw_energy:          -27.733168
##########                      Grid_es_energy:           -1.103132
##########           Internal_energy_repulsive:            9.537957

@<TRIPOS>MOLECULE
ZINC000995593866
 48 50 1 0 0
SMALL
USER_CHARGES


@<TRIPOS>ATOM
      1 C1         -1.9976    5.5030   49.9752 C.3     1  ZINC000995593866   -0.1400
      2 C2         -1.5806    4.0326   50.0468 C.3     1  ZINC000995593866   -0.0800
      3 C3         -0.1305    3.9145   50.5202 C.3     1  ZINC000995593866   -0.1400
      4 C4         -2.5211    3.2533   50.9912 C.3     1  ZINC000995593866    0.1200
      5 N5         -3.5435    2.6625   50.0965 N.am    1  ZINC000995593866   -0.6300
      6 C6         -4.8675    2.5440   50.3189 C.2     1  ZINC000995593866    0.5400
      7 O7         -5.5799    2.0333   49.4806 O.2     1  ZINC000995593866   -0.5300
      8 C8         -5.4627    3.0460   51.6091 C.3     1  ZINC000995593866   -0.1300
      9 C9         -6.9179    2.5849   51.7129 C.3     1  ZINC000995593866   -0.1000
     10 C10        -7.0687    1.1013   52.0885 C.3     1  ZINC000995593866   -0.1300
     11 C11        -8.2403    1.5292   52.9879 C.3     1  ZINC000995593866   -0.1400
     12 C12        -7.5730    2.9126   53.0650 C.3     1  ZINC000995593866   -0.1400
     13 C13        -2.7804    2.2315   48.9021 C.3     1  ZINC000995593866    0.1100
     14 C14        -1.7516    3.3589   48.6693 C.3     1  ZINC000995593866    0.0800
     15 H15        -2.1327    4.0754   47.9417 H       1  ZINC000995593866    0.0700
     16 N16        -0.4738    2.7975   48.2108 N.3     1  ZINC000995593866   -0.6800
     17 C17        -0.5173    2.4945   46.7741 C.3     1  ZINC000995593866    0.1500
     18 C18        -0.0464    3.6942   45.9932 C.2     1  ZINC000995593866    0.1900
     19 N19         0.5221    3.6829   44.8116 N.2     1  ZINC000995593866   -0.4300
     20 C20         0.7666    4.9718   44.5151 C.2     1  ZINC000995593866    0.0900
     21 C21         1.4134    5.4902   43.2565 C.3     1  ZINC000995593866    0.3800
     22 F22         2.1034    6.6737   43.5404 F       1  ZINC000995593866   -0.1800
     23 F23         2.3092    4.5347   42.7649 F       1  ZINC000995593866   -0.1700
     24 N24         0.3422    5.6878   45.5129 N.2     1  ZINC000995593866   -0.3400
     25 O25        -0.1337    4.9735   46.3699 O.3     1  ZINC000995593866    0.1000
     26 H26        -3.0431    5.5698   49.6740 H       1  ZINC000995593866    0.0600
     27 H27        -1.8713    5.9645   50.9544 H       1  ZINC000995593866    0.0600
     28 H28        -1.3756    6.0219   49.2459 H       1  ZINC000995593866    0.0600
     29 H29        -0.0314    4.3715   51.5049 H       1  ZINC000995593866    0.0700
     30 H30         0.1483    2.8624   50.5783 H       1  ZINC000995593866    0.0700
     31 H31         0.5248    4.4257   49.8149 H       1  ZINC000995593866    0.0600
     32 H32        -1.9721    2.4685   51.5115 H       1  ZINC000995593866    0.0800
     33 H33        -2.9876    3.9305   51.7065 H       1  ZINC000995593866    0.0900
     34 H34        -4.8948    2.6483   52.4502 H       1  ZINC000995593866    0.0900
     35 H35        -5.4245    4.1352   51.6274 H       1  ZINC000995593866    0.0900
     36 H36        -7.5184    2.8823   50.8533 H       1  ZINC000995593866    0.1000
     37 H37        -7.3681    0.4678   51.2535 H       1  ZINC000995593866    0.0700
     38 H38        -6.2178    0.7019   52.6404 H       1  ZINC000995593866    0.0800
     39 H39        -9.2030    1.5368   52.4769 H       1  ZINC000995593866    0.0800
     40 H40        -8.2712    1.0056   53.9434 H       1  ZINC000995593866    0.0700
     41 H41        -6.8600    3.0084   53.8839 H       1  ZINC000995593866    0.0800
     42 H42        -8.2795    3.7413   53.0185 H       1  ZINC000995593866    0.0700
     43 H43        -2.2720    1.2871   49.0962 H       1  ZINC000995593866    0.0900
     44 H44        -3.4427    2.1378   48.0414 H       1  ZINC000995593866    0.0800
     45 H45         0.2919    3.4181   48.4266 H       1  ZINC000995593866    0.3600
     46 H46         0.1322    1.6452   46.5621 H       1  ZINC000995593866    0.1200
     47 H47        -1.5397    2.2511   46.4850 H       1  ZINC000995593866    0.0800
     48 H48         0.6459    5.6876   42.5083 H       1  ZINC000995593866    0.1500
@<TRIPOS>BOND
     1     1     2    1
     2     1    26    1
     3     1    27    1
     4     1    28    1
     5     2    14    1
     6     2     3    1
     7     2     4    1
     8     3    29    1
     9     3    30    1
    10     3    31    1
    11     4     5    1
    12     4    32    1
    13     4    33    1
    14     5     6   am
    15     5    13    1
    16     6     7    2
    17     6     8    1
    18     8     9    1
    19     8    34    1
    20     8    35    1
    21     9    12    1
    22     9    10    1
    23     9    36    1
    24    10    11    1
    25    10    37    1
    26    10    38    1
    27    11    12    1
    28    11    39    1
    29    11    40    1
    30    12    41    1
    31    12    42    1
    32    13    14    1
    33    13    43    1
    34    13    44    1
    35    14    15    1
    36    14    16    1
    37    16    17    1
    38    16    45    1
    39    17    18    1
    40    17    46    1
    41    17    47    1
    42    18    25    1
    43    18    19    2
    44    19    20    1
    45    20    21    1
    46    20    24    2
    47    21    22    1
    48    21    23    1
    49    21    48    1
    50    24    25    1
@<TRIPOS>SUBSTRUCTURE
     1 ZINC000995593866        1 TEMP              0 ****  ****    0 ROOT


##########                                Name:    ZINC000416583757
##########                DOCK_Rotatable_Bonds:                   7
##########                         Heavy_Atoms:                  20
##########                    Molecular_Weight:             380.693
##########                DOCK_Rotatable_Bonds:                   7
##########                       Formal_Charge:         1.04308e-07
##########                     HBond_Acceptors:                   7
##########                        HBond_Donors:                   1
##########                         Heavy_Atoms:                  20
##########                          Grid_Score:          -28.830769
##########                     Grid_vdw_energy:          -28.313875
##########                      Grid_es_energy:           -0.516893
##########           Internal_energy_repulsive:            9.428396

@<TRIPOS>MOLECULE
ZINC000416583757
 35 35 1 0 0
SMALL
USER_CHARGES


@<TRIPOS>ATOM
      1 C1         -8.8948    1.9684   54.8388 C.3     1  ZINC000416583757   -0.1500
      2 C2         -8.4705    1.6508   53.4036 C.3     1  ZINC000416583757   -0.0200
      3 H3         -8.0144    0.6613   53.3701 H       1  ZINC000416583757    0.1200
      4 C4         -9.6518    1.6767   52.5257 C.1     1  ZINC000416583757    0.2100
      5 N5        -10.5634    1.6966   51.8481 N.1     1  ZINC000416583757   -0.4200
      6 C6         -7.4586    2.6951   52.9279 C.3     1  ZINC000416583757    0.1300
      7 N7         -7.2585    2.5583   51.4831 N.am    1  ZINC000416583757   -1.0100
      8 C8         -8.0047    3.4127   50.5561 C.3     1  ZINC000416583757    0.0800
      9 S9         -6.1889    1.4377   50.8978 S.o2    1  ZINC000416583757    2.7800
     10 O10        -6.5586    0.1917   51.4725 O.2     1  ZINC000416583757   -0.9700
     11 O11        -6.1088    1.6535   49.4956 O.2     1  ZINC000416583757   -0.9700
     12 N12        -4.6986    1.8134   51.5146 N.am    1  ZINC000416583757   -1.1300
     13 C13        -4.0938    3.1161   51.2264 C.3     1  ZINC000416583757    0.1600
     14 C14        -2.7550    2.9132   50.5651 C.ar    1  ZINC000416583757   -0.0800
     15 C15        -1.5921    3.0990   51.2884 C.ar    1  ZINC000416583757   -0.0800
     16 C16        -0.3625    2.9123   50.6817 C.ar    1  ZINC000416583757   -0.0300
     17 Cl17        1.0983    3.1451   51.5905 Cl      1  ZINC000416583757   -0.0500
     18 C18        -0.2976    2.5396   49.3514 C.ar    1  ZINC000416583757   -0.0700
     19 C19        -1.4619    2.3537   48.6280 C.ar    1  ZINC000416583757   -0.0800
     20 Br20       -1.3740    1.8442   46.8091 Br      1  ZINC000416583757   -0.0300
     21 C21        -2.6904    2.5356   49.2368 C.ar    1  ZINC000416583757   -0.0700
     22 H22        -9.7029    1.2998   55.1352 H       1  ZINC000416583757    0.0700
     23 H23        -8.0453    1.8305   55.5078 H       1  ZINC000416583757    0.0800
     24 H24        -9.2383    3.0013   54.8961 H       1  ZINC000416583757    0.0700
     25 H25        -7.8355    3.6936   53.1496 H       1  ZINC000416583757    0.0900
     26 H26        -6.5099    2.5423   53.4423 H       1  ZINC000416583757    0.1000
     27 H27        -7.4370    4.3233   50.3642 H       1  ZINC000416583757    0.0700
     28 H28        -8.1641    2.8797   49.6188 H       1  ZINC000416583757    0.0800
     29 H29        -8.9682    3.6710   50.9955 H       1  ZINC000416583757    0.0800
     30 H30        -4.2263    1.1709   52.0667 H       1  ZINC000416583757    0.4200
     31 H31        -4.7464    3.6803   50.5600 H       1  ZINC000416583757    0.0800
     32 H32        -3.9597    3.6684   52.1565 H       1  ZINC000416583757    0.1000
     33 H33        -1.6431    3.3904   52.3271 H       1  ZINC000416583757    0.1500
     34 H34         0.6619    2.3940   48.8773 H       1  ZINC000416583757    0.1500
     35 H35        -3.5996    2.3905   48.6720 H       1  ZINC000416583757    0.1400
@<TRIPOS>BOND
     1     1     2    1
     2     1    22    1
     3     1    23    1
     4     1    24    1
     5     2     3    1
     6     2     4    1
     7     2     6    1
     8     4     5    3
     9     6     7    1
    10     6    25    1
    11     6    26    1
    12     7     8    1
    13     7     9   am
    14     8    27    1
    15     8    28    1
    16     8    29    1
    17     9    10    2
    18     9    11    2
    19     9    12   am
    20    12    13    1
    21    12    30    1
    22    13    14    1
    23    13    31    1
    24    13    32    1
    25    14    21   ar
    26    14    15   ar
    27    15    16   ar
    28    15    33    1
    29    16    17    1
    30    16    18   ar
    31    18    19   ar
    32    18    34    1
    33    19    20    1
    34    19    21   ar
    35    21    35    1
@<TRIPOS>SUBSTRUCTURE
     1 ZINC000416583757        1 TEMP              0 ****  ****    0 ROOT


##########                                Name:    ZINC000469435497
##########                DOCK_Rotatable_Bonds:                   6
##########                         Heavy_Atoms:                  27
##########                    Molecular_Weight:             364.444
##########                DOCK_Rotatable_Bonds:                   6
##########                       Formal_Charge:           0.0300001
##########                     HBond_Acceptors:                   5
##########                        HBond_Donors:                   2
##########                         Heavy_Atoms:                  27
##########                          Grid_Score:          -28.824883
##########                     Grid_vdw_energy:          -28.308073
##########                      Grid_es_energy:           -0.516810
##########           Internal_energy_repulsive:            4.250925

@<TRIPOS>MOLECULE
ZINC000469435497
 51 54 1 0 0
SMALL
USER_CHARGES


@<TRIPOS>ATOM
      1 C1          0.9762    4.1709   44.3827 C.3     1  ZINC000469435497   -0.1600
      2 C2          1.4755    3.3857   45.5973 C.3     1  ZINC000469435497    0.1000
      3 C3          2.9721    3.0933   45.4732 C.3     1  ZINC000469435497   -0.1400
      4 C4          1.1689    4.1493   46.9073 C.3     1  ZINC000469435497   -0.1000
      5 C5         -0.1696    3.5598   47.3081 C.ar    1  ZINC000469435497   -0.1500
      6 C6         -1.1274    3.9717   48.2069 C.ar    1  ZINC000469435497   -0.0700
      7 C7         -2.2888    3.2267   48.3724 C.ar    1  ZINC000469435497    0.1100
      8 N8         -3.2675    3.6409   49.2855 N.am    1  ZINC000469435497   -0.6600
      9 C9         -3.0814    3.4483   50.6063 C.2     1  ZINC000469435497    0.5100
     10 O10        -2.0668    2.9163   51.0046 O.2     1  ZINC000469435497   -0.5200
     11 C11        -4.1341    3.8938   51.5884 C.3     1  ZINC000469435497    0.1000
     12 N12        -5.1514    2.8482   51.7217 N.am    1  ZINC000469435497   -0.7200
     13 C13        -6.4078    3.1728   52.0858 C.2     1  ZINC000469435497    0.5700
     14 O14        -6.6964    4.3331   52.3050 O.2     1  ZINC000469435497   -0.5300
     15 C15        -7.4350    2.1177   52.2186 C.ar    1  ZINC000469435497   -0.1400
     16 C16        -7.0911    0.7772   52.0396 C.ar    1  ZINC000469435497   -0.0800
     17 C17        -8.0554   -0.1998   52.1654 C.ar    1  ZINC000469435497   -0.1100
     18 C18        -9.3644    0.1412   52.4684 C.ar    1  ZINC000469435497   -0.0700
     19 C19       -10.5850   -0.7353   52.6554 C.3     1  ZINC000469435497   -0.0900
     20 C20       -11.6100    0.1513   53.3938 C.3     1  ZINC000469435497   -0.1200
     21 C21       -11.1881    1.5729   52.9661 C.3     1  ZINC000469435497   -0.0800
     22 C22        -9.7118    1.4691   52.6470 C.ar    1  ZINC000469435497   -0.1100
     23 C23        -8.7520    2.4562   52.5291 C.ar    1  ZINC000469435497   -0.0400
     24 C24        -2.4737    2.0697   47.6277 C.ar    1  ZINC000469435497   -0.1000
     25 C25        -1.5099    1.6584   46.7312 C.ar    1  ZINC000469435497   -0.1200
     26 C26        -0.3431    2.3997   46.5637 C.ar    1  ZINC000469435497    0.1000
     27 O27         0.7299    2.1668   45.7573 O.3     1  ZINC000469435497   -0.3000
     28 H28        -0.0833    4.3954   44.5057 H       1  ZINC000469435497    0.0600
     29 H29         1.5371    5.1015   44.2961 H       1  ZINC000469435497    0.0800
     30 H30         1.1192    3.5753   43.4811 H       1  ZINC000469435497    0.0700
     31 H31         3.5229    4.0326   45.4228 H       1  ZINC000469435497    0.0800
     32 H32         3.3042    2.5235   46.3410 H       1  ZINC000469435497    0.0700
     33 H33         3.1555    2.5155   44.5673 H       1  ZINC000469435497    0.0700
     34 H34         1.9267    3.9449   47.6636 H       1  ZINC000469435497    0.0900
     35 H35         1.0835    5.2202   46.7230 H       1  ZINC000469435497    0.0900
     36 H36        -0.9764    4.8725   48.7831 H       1  ZINC000469435497    0.1400
     37 H37        -4.0789    4.0664   48.9669 H       1  ZINC000469435497    0.4200
     38 H38        -3.6718    4.0767   52.5584 H       1  ZINC000469435497    0.1100
     39 H39        -4.6008    4.8112   51.2296 H       1  ZINC000469435497    0.1100
     40 H40        -4.9208    1.9221   51.5480 H       1  ZINC000469435497    0.4100
     41 H41        -6.0728    0.5060   51.8031 H       1  ZINC000469435497    0.1300
     42 H42        -7.7895   -1.2373   52.0265 H       1  ZINC000469435497    0.1300
     43 H43       -10.9802   -1.0447   51.6878 H       1  ZINC000469435497    0.0900
     44 H44       -10.3352   -1.6077   53.2593 H       1  ZINC000469435497    0.0800
     45 H45       -12.6240   -0.0688   53.0602 H       1  ZINC000469435497    0.0800
     46 H46       -11.5211    0.0292   54.4733 H       1  ZINC000469435497    0.0700
     47 H47       -11.7453    1.8828   52.0820 H       1  ZINC000469435497    0.0800
     48 H48       -11.3501    2.2770   53.7822 H       1  ZINC000469435497    0.0800
     49 H49        -9.0227    3.4917   52.6742 H       1  ZINC000469435497    0.1400
     50 H50        -3.3760    1.4892   47.7513 H       1  ZINC000469435497    0.1400
     51 H51        -1.6610    0.7570   46.1558 H       1  ZINC000469435497    0.1300
@<TRIPOS>BOND
     1     1     2    1
     2     1    28    1
     3     1    29    1
     4     1    30    1
     5     2    27    1
     6     2     3    1
     7     2     4    1
     8     3    31    1
     9     3    32    1
    10     3    33    1
    11     4     5    1
    12     4    34    1
    13     4    35    1
    14     5    26   ar
    15     5     6   ar
    16     6     7   ar
    17     6    36    1
    18     7     8    1
    19     7    24   ar
    20     8     9   am
    21     8    37    1
    22     9    10    2
    23     9    11    1
    24    11    12    1
    25    11    38    1
    26    11    39    1
    27    12    13   am
    28    12    40    1
    29    13    14    2
    30    13    15    1
    31    15    23   ar
    32    15    16   ar
    33    16    17   ar
    34    16    41    1
    35    17    18   ar
    36    17    42    1
    37    18    22   ar
    38    18    19    1
    39    19    20    1
    40    19    43    1
    41    19    44    1
    42    20    21    1
    43    20    45    1
    44    20    46    1
    45    21    22    1
    46    21    47    1
    47    21    48    1
    48    22    23   ar
    49    23    49    1
    50    24    25   ar
    51    24    50    1
    52    25    26   ar
    53    25    51    1
    54    26    27    1
@<TRIPOS>SUBSTRUCTURE
     1 ZINC000469435497        1 TEMP              0 ****  ****    0 ROOT


##########                                Name:    ZINC000611836474
##########                DOCK_Rotatable_Bonds:                   7
##########                         Heavy_Atoms:                  22
##########                    Molecular_Weight:             366.258
##########                DOCK_Rotatable_Bonds:                   7
##########                       Formal_Charge:          -0.0300004
##########                     HBond_Acceptors:                   5
##########                        HBond_Donors:                   1
##########                         Heavy_Atoms:                  22
##########                          Grid_Score:          -28.821211
##########                     Grid_vdw_energy:          -28.805506
##########                      Grid_es_energy:           -0.015706
##########           Internal_energy_repulsive:           11.019625

@<TRIPOS>MOLECULE
ZINC000611836474
 42 43 1 0 0
SMALL
USER_CHARGES


@<TRIPOS>ATOM
      1 C1          2.1899   -1.6011   49.5779 C.3     1  ZINC000611836474   -0.1500
      2 C2          3.3102   -0.5948   49.8492 C.3     1  ZINC000611836474   -0.1400
      3 C3          2.8028    0.8211   49.5689 C.3     1  ZINC000611836474    0.1300
      4 N4          2.4996    0.9577   48.1421 N.pl3   1  ZINC000611836474   -0.3900
      5 N5          3.1672    0.3141   47.0923 N.2     1  ZINC000611836474   -0.2900
      6 C6          2.6149    0.6827   45.9649 C.2     1  ZINC000611836474    0.0600
      7 C7          1.5771    1.5728   46.2542 C.2     1  ZINC000611836474   -0.2800
      8 C8          1.5217    1.7230   47.6059 C.2     1  ZINC000611836474    0.3000
      9 N9          0.6249    2.5266   48.3098 N.am    1  ZINC000611836474   -0.6500
     10 C10        -0.6862    2.5057   47.9983 C.2     1  ZINC000611836474    0.5200
     11 O11        -1.0866    1.7870   47.1070 O.2     1  ZINC000611836474   -0.4700
     12 C12        -1.6550    3.3753   48.7576 C.3     1  ZINC000611836474    0.0700
     13 H13        -2.5803    3.4701   48.1895 H       1  ZINC000611836474    0.1100
     14 C14        -1.0408    4.7607   48.9669 C.3     1  ZINC000611836474   -0.1800
     15 O15        -1.9341    2.7813   50.0270 O.3     1  ZINC000611836474   -0.2700
     16 C16        -3.2380    2.7177   50.4052 C.ar    1  ZINC000611836474    0.1500
     17 C17        -4.1731    2.1160   49.5764 C.ar    1  ZINC000611836474   -0.2000
     18 C18        -5.4983    2.0526   49.9630 C.ar    1  ZINC000611836474   -0.0600
     19 C19        -5.8928    2.5887   51.1745 C.ar    1  ZINC000611836474   -0.1100
     20 C20        -7.3389    2.5184   51.5930 C.3     1  ZINC000611836474   -0.1100
     21 C21        -4.9629    3.1890   52.0035 C.ar    1  ZINC000611836474   -0.0500
     22 C22        -3.6353    3.2500   51.6243 C.ar    1  ZINC000611836474   -0.1200
     23 Br23       -2.3639    4.0709   52.7580 Br      1  ZINC000611836474   -0.0300
     24 H24         2.5515   -2.6097   49.7776 H       1  ZINC000611836474    0.0600
     25 H25         1.3416   -1.3840   50.2270 H       1  ZINC000611836474    0.0600
     26 H26         1.8788   -1.5262   48.5359 H       1  ZINC000611836474    0.0600
     27 H27         3.6213   -0.6697   50.8911 H       1  ZINC000611836474    0.0800
     28 H28         4.1585   -0.8119   49.2001 H       1  ZINC000611836474    0.0600
     29 H29         1.9002    1.0056   50.1514 H       1  ZINC000611836474    0.0800
     30 H30         3.5696    1.5438   49.8482 H       1  ZINC000611836474    0.1000
     31 H31         2.9107    0.3554   44.9791 H       1  ZINC000611836474    0.1900
     32 H32         0.9317    2.0532   45.5339 H       1  ZINC000611836474    0.1700
     33 H33         0.9448    3.1004   49.0234 H       1  ZINC000611836474    0.4100
     34 H34        -0.8279    5.2138   47.9987 H       1  ZINC000611836474    0.0800
     35 H35        -1.7415    5.3896   49.5161 H       1  ZINC000611836474    0.0800
     36 H36        -0.1154    4.6659   49.5350 H       1  ZINC000611836474    0.0800
     37 H37        -3.8658    1.6975   48.6293 H       1  ZINC000611836474    0.1400
     38 H38        -6.2266    1.5840   49.3177 H       1  ZINC000611836474    0.1300
     39 H39        -7.5113    1.5980   52.1509 H       1  ZINC000611836474    0.0700
     40 H40        -7.5768    3.3753   52.2230 H       1  ZINC000611836474    0.0700
     41 H41        -7.9743    2.5309   50.7074 H       1  ZINC000611836474    0.0700
     42 H42        -5.2736    3.6071   52.9495 H       1  ZINC000611836474    0.1400
@<TRIPOS>BOND
     1     1     2    1
     2     1    24    1
     3     1    25    1
     4     1    26    1
     5     2     3    1
     6     2    27    1
     7     2    28    1
     8     3     4    1
     9     3    29    1
    10     3    30    1
    11     4     8    1
    12     4     5    1
    13     5     6    2
    14     6     7    1
    15     6    31    1
    16     7     8    2
    17     7    32    1
    18     8     9    1
    19     9    10   am
    20     9    33    1
    21    10    11    2
    22    10    12    1
    23    12    13    1
    24    12    14    1
    25    12    15    1
    26    14    34    1
    27    14    35    1
    28    14    36    1
    29    15    16    1
    30    16    22   ar
    31    16    17   ar
    32    17    18   ar
    33    17    37    1
    34    18    19   ar
    35    18    38    1
    36    19    20    1
    37    19    21   ar
    38    20    39    1
    39    20    40    1
    40    20    41    1
    41    21    22   ar
    42    21    42    1
    43    22    23    1
@<TRIPOS>SUBSTRUCTURE
     1 ZINC000611836474        1 TEMP              0 ****  ****    0 ROOT


##########                                Name:    ZINC000530457945
##########                DOCK_Rotatable_Bonds:                   4
##########                         Heavy_Atoms:                  25
##########                    Molecular_Weight:             355.827
##########                DOCK_Rotatable_Bonds:                   4
##########                       Formal_Charge:           0.0199997
##########                     HBond_Acceptors:                   7
##########                        HBond_Donors:                   1
##########                         Heavy_Atoms:                  25
##########                          Grid_Score:          -28.820425
##########                     Grid_vdw_energy:          -27.386795
##########                      Grid_es_energy:           -1.433630
##########           Internal_energy_repulsive:           34.022057

@<TRIPOS>MOLECULE
ZINC000530457945
 43 46 1 0 0
SMALL
USER_CHARGES


@<TRIPOS>ATOM
      1 C1         -0.8002    2.4697   46.3042 C.3     1  ZINC000530457945   -0.1700
      2 C2         -0.6322    2.5317   47.8237 C.3     1  ZINC000530457945    0.0900
      3 H3         -0.8037    1.5460   48.2561 H       1  ZINC000530457945    0.1100
      4 C4         -1.6285    3.5477   48.4210 C.3     1  ZINC000530457945   -0.1200
      5 H5         -1.9317    4.2773   47.6701 H       1  ZINC000530457945    0.1100
      6 C6         -2.8316    2.8418   48.9914 C.2     1  ZINC000530457945    0.5300
      7 O7         -3.2977    1.8794   48.4194 O.2     1  ZINC000530457945   -0.4700
      8 N8         -3.3894    3.2800   50.1375 N.am    1  ZINC000530457945   -0.6200
      9 C9         -4.5053    2.6268   50.6653 C.2     1  ZINC000530457945    0.4800
     10 N10        -5.4816    3.2077   51.3329 N.2     1  ZINC000530457945   -0.3000
     11 N11        -6.3959    2.2035   51.6818 N.pl3   1  ZINC000530457945   -0.2800
     12 C12        -7.5721    2.2152   52.3627 C.2     1  ZINC000530457945    0.1400
     13 C13        -8.2653    1.0696   52.5587 C.2     1  ZINC000530457945   -0.0800
     14 Cl14       -9.7658    1.1041   53.4309 Cl      1  ZINC000530457945   -0.0200
     15 C15        -7.7746   -0.1460   52.0583 C.2     1  ZINC000530457945   -0.0500
     16 C16        -6.5967   -0.1657   51.3744 C.2     1  ZINC000530457945   -0.0900
     17 C17        -5.8923    1.0362   51.1825 C.2     1  ZINC000530457945    0.3000
     18 N18        -4.7496    1.3239   50.5671 N.2     1  ZINC000530457945   -0.5500
     19 C19        -0.8028    4.2277   49.5446 C.3     1  ZINC000530457945   -0.1200
     20 C20         0.6111    4.2682   48.9132 C.3     1  ZINC000530457945    0.0400
     21 N21         0.7258    2.9974   48.1596 N.3     1  ZINC000530457945   -0.4900
     22 C22         1.4962    3.1669   47.0069 C.ar    1  ZINC000530457945    0.1000
     23 C23         2.4496    2.2177   46.6610 C.ar    1  ZINC000530457945   -0.1600
     24 C24         3.2092    2.3881   45.5203 C.ar    1  ZINC000530457945   -0.1100
     25 C25         3.0218    3.5025   44.7231 C.ar    1  ZINC000530457945   -0.1300
     26 C26         2.0736    4.4492   45.0645 C.ar    1  ZINC000530457945   -0.1100
     27 C27         1.3066    4.2821   46.2007 C.ar    1  ZINC000530457945   -0.1000
     28 H28        -0.0142    1.8470   45.8769 H       1  ZINC000530457945    0.0700
     29 H29        -1.7736    2.0423   46.0634 H       1  ZINC000530457945    0.0600
     30 H30        -0.7325    3.4756   45.8899 H       1  ZINC000530457945    0.0600
     31 H31        -3.0157    4.0490   50.5957 H       1  ZINC000530457945    0.4300
     32 H32        -7.9566    3.1467   52.7510 H       1  ZINC000530457945    0.1800
     33 H33        -8.3273   -1.0606   52.2148 H       1  ZINC000530457945    0.1600
     34 H34        -6.2076   -1.0946   50.9844 H       1  ZINC000530457945    0.1700
     35 H35        -1.1701    5.2343   49.7445 H       1  ZINC000530457945    0.0900
     36 H36        -0.8079    3.6244   50.4525 H       1  ZINC000530457945    0.0900
     37 H37         0.7014    5.1200   48.2391 H       1  ZINC000530457945    0.0700
     38 H38         1.3729    4.3164   49.6912 H       1  ZINC000530457945    0.0900
     39 H39         2.5969    1.3476   47.2835 H       1  ZINC000530457945    0.1200
     40 H40         3.9507    1.6506   45.2507 H       1  ZINC000530457945    0.1200
     41 H41         3.6177    3.6337   43.8319 H       1  ZINC000530457945    0.1200
     42 H42         1.9298    5.3184   44.4397 H       1  ZINC000530457945    0.1300
     43 H43         0.5660    5.0218   46.4667 H       1  ZINC000530457945    0.1300
@<TRIPOS>BOND
     1     1     2    1
     2     1    28    1
     3     1    29    1
     4     1    30    1
     5     2     3    1
     6     2    21    1
     7     2     4    1
     8     4     5    1
     9     4     6    1
    10     4    19    1
    11     6     7    2
    12     6     8   am
    13     8     9    1
    14     8    31    1
    15     9    18    1
    16     9    10    2
    17    10    11    1
    18    11    17    1
    19    11    12    1
    20    12    13    2
    21    12    32    1
    22    13    14    1
    23    13    15    1
    24    15    16    2
    25    15    33    1
    26    16    17    1
    27    16    34    1
    28    17    18    2
    29    19    20    1
    30    19    35    1
    31    19    36    1
    32    20    21    1
    33    20    37    1
    34    20    38    1
    35    21    22    1
    36    22    27   ar
    37    22    23   ar
    38    23    24   ar
    39    23    39    1
    40    24    25   ar
    41    24    40    1
    42    25    26   ar
    43    25    41    1
    44    26    27   ar
    45    26    42    1
    46    27    43    1
@<TRIPOS>SUBSTRUCTURE
     1 ZINC000530457945        1 TEMP              0 ****  ****    0 ROOT


##########                                Name:    ZINC000892389374
##########                DOCK_Rotatable_Bonds:                   6
##########                         Heavy_Atoms:                  25
##########                    Molecular_Weight:             371.383
##########                DOCK_Rotatable_Bonds:                   6
##########                       Formal_Charge:          -0.0199998
##########                     HBond_Acceptors:                   9
##########                        HBond_Donors:                   1
##########                         Heavy_Atoms:                  25
##########                          Grid_Score:          -28.797731
##########                     Grid_vdw_energy:          -28.094997
##########                      Grid_es_energy:           -0.702735
##########           Internal_energy_repulsive:            4.986938

@<TRIPOS>MOLECULE
ZINC000892389374
 41 43 1 0 0
SMALL
USER_CHARGES


@<TRIPOS>ATOM
      1 C1         -4.7347    4.4390   53.4900 C.3     1  ZINC000892389374   -0.1000
      2 C2         -3.8549    4.0616   52.3260 C.ar    1  ZINC000892389374   -0.1800
      3 C3         -2.7911    4.8696   51.9747 C.ar    1  ZINC000892389374   -0.0400
      4 C4         -1.9820    4.5268   50.9084 C.ar    1  ZINC000892389374   -0.2100
      5 C5         -2.2363    3.3682   50.1857 C.ar    1  ZINC000892389374    0.2200
      6 N6         -1.4161    3.0219   49.1059 N.am    1  ZINC000892389374   -0.5700
      7 C7         -1.7331    3.2409   47.6863 C.3     1  ZINC000892389374    0.0600
      8 C8         -0.5037    2.6811   46.9452 C.3     1  ZINC000892389374    0.0400
      9 O9          0.3681    2.2104   48.0135 O.3     1  ZINC000892389374   -0.3200
     10 C10        -0.2115    2.4421   49.1968 C.2     1  ZINC000892389374    0.6400
     11 O11         0.3036    2.1459   50.2568 O.2     1  ZINC000892389374   -0.5000
     12 C12        -3.3039    2.5541   50.5358 C.ar    1  ZINC000892389374   -0.2300
     13 C13        -4.1114    2.8978   51.6107 C.ar    1  ZINC000892389374    0.2400
     14 N14        -5.1872    2.0813   51.9664 N.pl3   1  ZINC000892389374   -0.7400
     15 C15        -6.1718    1.6856   50.9564 C.3     1  ZINC000892389374    0.2000
     16 C16        -7.2267    0.8197   51.5953 C.2     1  ZINC000892389374   -0.2400
     17 C17        -7.2578   -0.5164   51.5876 C.2     1  ZINC000892389374    0.0600
     18 N18        -8.2882   -1.0428   52.2182 N.2     1  ZINC000892389374   -0.4500
     19 C19        -9.1282   -0.2251   52.7574 C.2     1  ZINC000892389374    0.0200
     20 C20       -10.3634   -0.6343   53.5176 C.3     1  ZINC000892389374   -0.0900
     21 C21       -11.5420   -0.7534   52.5494 C.3     1  ZINC000892389374    0.4600
     22 F22       -12.6812   -1.1646   53.2497 F       1  ZINC000892389374   -0.1800
     23 F23       -11.7839    0.4891   51.9539 F       1  ZINC000892389374   -0.1800
     24 F24       -11.2387   -1.6940   51.5591 F       1  ZINC000892389374   -0.1700
     25 S25        -8.6330    1.3895   52.4909 S.3     1  ZINC000892389374    0.1900
     26 H26        -4.3325    4.0045   54.4053 H       1  ZINC000892389374    0.0700
     27 H27        -4.7647    5.5243   53.5859 H       1  ZINC000892389374    0.0700
     28 H28        -5.7430    4.0610   53.3210 H       1  ZINC000892389374    0.0600
     29 H29        -2.5916    5.7714   52.5344 H       1  ZINC000892389374    0.1300
     30 H30        -1.1510    5.1607   50.6362 H       1  ZINC000892389374    0.1200
     31 H31        -2.6320    2.6920   47.4057 H       1  ZINC000892389374    0.1000
     32 H32        -1.8528    4.3045   47.4805 H       1  ZINC000892389374    0.1000
     33 H33        -0.7925    1.8549   46.2956 H       1  ZINC000892389374    0.1100
     34 H34        -0.0135    3.4669   46.3704 H       1  ZINC000892389374    0.1100
     35 H35        -3.5039    1.6528   49.9752 H       1  ZINC000892389374    0.1600
     36 H36        -5.2824    1.7760   52.8822 H       1  ZINC000892389374    0.4000
     37 H37        -6.6387    2.5762   50.5356 H       1  ZINC000892389374    0.0900
     38 H38        -5.6746    1.1270   50.1634 H       1  ZINC000892389374    0.0800
     39 H39        -6.5004   -1.1156   51.1041 H       1  ZINC000892389374    0.1800
     40 H40       -10.1910   -1.5963   54.0002 H       1  ZINC000892389374    0.1300
     41 H41       -10.5896    0.1165   54.2747 H       1  ZINC000892389374    0.1400
@<TRIPOS>BOND
     1     1     2    1
     2     1    26    1
     3     1    27    1
     4     1    28    1
     5     2    13   ar
     6     2     3   ar
     7     3     4   ar
     8     3    29    1
     9     4     5   ar
    10     4    30    1
    11     5     6    1
    12     5    12   ar
    13     6    10   am
    14     6     7    1
    15     7     8    1
    16     7    31    1
    17     7    32    1
    18     8     9    1
    19     8    33    1
    20     8    34    1
    21     9    10    1
    22    10    11    2
    23    12    13   ar
    24    12    35    1
    25    13    14    1
    26    14    15    1
    27    14    36    1
    28    15    16    1
    29    15    37    1
    30    15    38    1
    31    16    25    1
    32    16    17    2
    33    17    18    1
    34    17    39    1
    35    18    19    2
    36    19    20    1
    37    19    25    1
    38    20    21    1
    39    20    40    1
    40    20    41    1
    41    21    22    1
    42    21    23    1
    43    21    24    1
@<TRIPOS>SUBSTRUCTURE
     1 ZINC000892389374        1 TEMP              0 ****  ****    0 ROOT


##########                                Name:    ZINC000288921983
##########                DOCK_Rotatable_Bonds:                   6
##########                         Heavy_Atoms:                  26
##########                    Molecular_Weight:             356.428
##########                DOCK_Rotatable_Bonds:                   6
##########                       Formal_Charge:           0.0199997
##########                     HBond_Acceptors:                   8
##########                        HBond_Donors:                   1
##########                         Heavy_Atoms:                  26
##########                          Grid_Score:          -28.790985
##########                     Grid_vdw_energy:          -28.886629
##########                      Grid_es_energy:            0.095644
##########           Internal_energy_repulsive:           62.600990

@<TRIPOS>MOLECULE
ZINC000288921983
 50 53 1 0 0
SMALL
USER_CHARGES


@<TRIPOS>ATOM
      1 C1        -10.2567   -0.1997   52.8058 C.3     1  ZINC000288921983   -0.1400
      2 C2         -9.6391    1.0938   53.3406 C.3     1  ZINC000288921983   -0.0500
      3 C3         -8.3451    1.3687   52.6185 C.ar    1  ZINC000288921983    0.3000
      4 N4         -7.6258    0.3528   52.1856 N.ar    1  ZINC000288921983   -0.5000
      5 C5         -6.4845    0.5520   51.5475 C.ar    1  ZINC000288921983    0.1300
      6 C6         -6.0475    1.8569   51.3363 C.ar    1  ZINC000288921983    0.0500
      7 N7         -4.8458    2.1123   50.6650 N.am    1  ZINC000288921983   -0.6700
      8 C8         -3.8025    2.6464   51.3305 C.2     1  ZINC000288921983    0.7100
      9 O9         -3.9051    2.9066   52.5137 O.2     1  ZINC000288921983   -0.5500
     10 N10        -2.6456    2.8923   50.6843 N.am    1  ZINC000288921983   -0.6200
     11 C11        -2.5066    2.5835   49.2546 C.3     1  ZINC000288921983    0.1100
     12 C12        -2.0271    3.8411   48.5229 C.3     1  ZINC000288921983   -0.1400
     13 C13        -0.7448    4.3528   49.1831 C.3     1  ZINC000288921983   -0.1200
     14 C14        -1.0315    4.7216   50.6404 C.3     1  ZINC000288921983   -0.1300
     15 C15        -1.5016    3.4796   51.3947 C.3     1  ZINC000288921983    0.2700
     16 H16        -0.6925    2.7506   51.4382 H       1  ZINC000288921983    0.1100
     17 C17        -1.9120    3.8630   52.7932 C.2     1  ZINC000288921983    0.1700
     18 N18        -2.4943    4.9728   53.1487 N.2     1  ZINC000288921983   -0.2500
     19 N19        -2.6976    4.9602   54.4192 N.2     1  ZINC000288921983   -0.2700
     20 C20        -2.2520    3.8420   54.9173 C.2     1  ZINC000288921983    0.1800
     21 C21        -2.2965    3.4308   56.3664 C.3     1  ZINC000288921983   -0.0300
     22 C22        -1.2613    4.1538   57.2440 C.3     1  ZINC000288921983   -0.1200
     23 C23        -2.3249    5.2422   57.4650 C.3     1  ZINC000288921983   -0.1400
     24 C24        -3.3789    4.1592   57.1804 C.3     1  ZINC000288921983   -0.1200
     25 O25        -1.7498    3.1205   53.9012 O.3     1  ZINC000288921983   -0.2200
     26 C26        -6.8373    2.9012   51.8096 C.ar    1  ZINC000288921983    0.1600
     27 N27        -7.9687    2.6182   52.4337 N.ar    1  ZINC000288921983   -0.5000
     28 H28       -11.1926   -0.3985   53.3280 H       1  ZINC000288921983    0.0700
     29 H29       -10.4515   -0.0952   51.7384 H       1  ZINC000288921983    0.0600
     30 H30        -9.5662   -1.0270   52.9699 H       1  ZINC000288921983    0.0600
     31 H31       -10.3295    1.9212   53.1766 H       1  ZINC000288921983    0.0900
     32 H32        -9.4443    0.9893   54.4080 H       1  ZINC000288921983    0.0900
     33 H33        -5.8999   -0.2853   51.1958 H       1  ZINC000288921983    0.1700
     34 H34        -4.7640    1.9048   49.7210 H       1  ZINC000288921983    0.4100
     35 H35        -1.7777    1.7838   49.1226 H       1  ZINC000288921983    0.0800
     36 H36        -3.4706    2.2720   48.8525 H       1  ZINC000288921983    0.0800
     37 H37        -1.8278    3.6007   47.4786 H       1  ZINC000288921983    0.0900
     38 H38        -2.7972    4.6104   48.5790 H       1  ZINC000288921983    0.0700
     39 H39         0.0171    3.5742   49.1487 H       1  ZINC000288921983    0.0700
     40 H40        -0.3880    5.2336   48.6490 H       1  ZINC000288921983    0.0800
     41 H41        -0.1233    5.1079   51.1033 H       1  ZINC000288921983    0.0900
     42 H42        -1.8109    5.4827   50.6766 H       1  ZINC000288921983    0.0900
     43 H43        -2.3043    2.3490   56.4993 H       1  ZINC000288921983    0.1000
     44 H44        -1.0002    3.6080   58.1507 H       1  ZINC000288921983    0.1000
     45 H45        -0.3882    4.5021   56.6922 H       1  ZINC000288921983    0.0800
     46 H46        -2.3546    5.6228   58.4859 H       1  ZINC000288921983    0.0700
     47 H47        -2.3004    6.0348   56.7172 H       1  ZINC000288921983    0.1000
     48 H48        -4.2156    4.5119   56.5772 H       1  ZINC000288921983    0.0700
     49 H49        -3.6969    3.6149   58.0697 H       1  ZINC000288921983    0.1000
     50 H50        -6.5327    3.9274   51.6659 H       1  ZINC000288921983    0.1800
@<TRIPOS>BOND
     1     1     2    1
     2     1    28    1
     3     1    29    1
     4     1    30    1
     5     2     3    1
     6     2    31    1
     7     2    32    1
     8     3    27   ar
     9     3     4   ar
    10     4     5   ar
    11     5     6   ar
    12     5    33    1
    13     6     7    1
    14     6    26   ar
    15     7     8   am
    16     7    34    1
    17     8     9    2
    18     8    10   am
    19    10    15    1
    20    10    11    1
    21    11    12    1
    22    11    35    1
    23    11    36    1
    24    12    13    1
    25    12    37    1
    26    12    38    1
    27    13    14    1
    28    13    39    1
    29    13    40    1
    30    14    15    1
    31    14    41    1
    32    14    42    1
    33    15    16    1
    34    15    17    1
    35    17    25    1
    36    17    18    2
    37    18    19    1
    38    19    20    2
    39    20    21    1
    40    20    25    1
    41    21    24    1
    42    21    22    1
    43    21    43    1
    44    22    23    1
    45    22    44    1
    46    22    45    1
    47    23    24    1
    48    23    46    1
    49    23    47    1
    50    24    48    1
    51    24    49    1
    52    26    27   ar
    53    26    50    1
@<TRIPOS>SUBSTRUCTURE
     1 ZINC000288921983        1 TEMP              0 ****  ****    0 ROOT


##########                                Name:    ZINC000523878927
##########                DOCK_Rotatable_Bonds:                   8
##########                         Heavy_Atoms:                  27
##########                    Molecular_Weight:             376.474
##########                DOCK_Rotatable_Bonds:                   8
##########                       Formal_Charge:          0.00999957
##########                     HBond_Acceptors:                   7
##########                        HBond_Donors:                   3
##########                         Heavy_Atoms:                  27
##########                          Grid_Score:          -28.787207
##########                     Grid_vdw_energy:          -28.047415
##########                      Grid_es_energy:           -0.739791
##########           Internal_energy_repulsive:            8.704902

@<TRIPOS>MOLECULE
ZINC000523878927
 56 58 1 0 0
SMALL
USER_CHARGES


@<TRIPOS>ATOM
      1 C1        -13.4729    0.0760   51.6352 C.3     1  ZINC000523878927   -0.1500
      2 C2        -13.1063   -0.4042   53.0409 C.3     1  ZINC000523878927   -0.0900
      3 H3        -13.7445   -1.2438   53.3160 H       1  ZINC000523878927    0.0700
      4 C4        -13.3081    0.7380   54.0387 C.3     1  ZINC000523878927   -0.1200
      5 C5        -12.4122    1.9167   53.6526 C.3     1  ZINC000523878927   -0.1200
      6 C6        -10.9480    1.4730   53.6744 C.3     1  ZINC000523878927   -0.1100
      7 C7        -10.7464    0.3309   52.6766 C.3     1  ZINC000523878927   -0.1000
      8 H8        -11.0075    0.6729   51.6751 H       1  ZINC000523878927    0.0800
      9 C9         -9.2823   -0.1128   52.6984 C.3     1  ZINC000523878927    0.1400
     10 N10        -8.4244    1.0158   52.3287 N.am    1  ZINC000523878927   -0.7400
     11 C11        -7.2282    0.7917   51.7498 C.2     1  ZINC000523878927    0.7200
     12 O12        -6.8603   -0.3472   51.5356 O.2     1  ZINC000523878927   -0.5800
     13 N13        -6.4397    1.8300   51.4084 N.am    1  ZINC000523878927   -0.6400
     14 C14        -6.7602    3.2549   51.6097 C.3     1  ZINC000523878927    0.1000
     15 C15        -5.3857    3.9677   51.6570 C.3     1  ZINC000523878927   -0.1400
     16 C16        -4.5826    3.1664   50.5984 C.3     1  ZINC000523878927    0.1500
     17 H17        -4.7923    3.5357   49.5946 H       1  ZINC000523878927    0.1100
     18 N18        -3.1466    3.2276   50.8818 N.am    1  ZINC000523878927   -0.7300
     19 C19        -2.2648    2.6973   50.0113 C.2     1  ZINC000523878927    0.7100
     20 O20        -2.6610    2.1696   48.9900 O.2     1  ZINC000523878927   -0.5700
     21 N21        -0.9437    2.7522   50.2728 N.am    1  ZINC000523878927   -0.6800
     22 C22        -0.0274    2.2011   49.3682 C.ar    1  ZINC000523878927    0.1500
     23 C23         0.8927    1.2553   49.8001 C.ar    1  ZINC000523878927   -0.1200
     24 C24         1.7952    0.7128   48.9064 C.ar    1  ZINC000523878927   -0.1300
     25 C25         1.7832    1.1119   47.5806 C.ar    1  ZINC000523878927    0.0800
     26 F26         2.6671    0.5803   46.7080 F       1  ZINC000523878927   -0.1400
     27 C27         0.8661    2.0546   47.1478 C.ar    1  ZINC000523878927   -0.1300
     28 C28        -0.0416    2.5957   48.0372 C.ar    1  ZINC000523878927   -0.0900
     29 C29        -5.1147    1.7292   50.7792 C.3     1  ZINC000523878927    0.1200
     30 C30       -11.6422   -0.8478   53.0626 C.3     1  ZINC000523878927   -0.1100
     31 H31       -13.3292   -0.7377   50.9243 H       1  ZINC000523878927    0.0500
     32 H32       -14.5159    0.3921   51.6197 H       1  ZINC000523878927    0.0500
     33 H33       -12.8347    0.9157   51.3601 H       1  ZINC000523878927    0.0600
     34 H34       -14.3510    1.0541   54.0232 H       1  ZINC000523878927    0.0600
     35 H35       -13.0468    0.3959   55.0402 H       1  ZINC000523878927    0.0600
     36 H36       -12.6733    2.2587   52.6512 H       1  ZINC000523878927    0.0700
     37 H37       -12.5559    2.7304   54.3635 H       1  ZINC000523878927    0.0600
     38 H38       -10.3098    2.3128   53.3993 H       1  ZINC000523878927    0.0600
     39 H39       -10.6869    1.1310   54.6759 H       1  ZINC000523878927    0.0600
     40 H40        -9.0212   -0.4549   53.6997 H       1  ZINC000523878927    0.0700
     41 H41        -9.1386   -0.9264   51.9874 H       1  ZINC000523878927    0.0700
     42 H42        -8.7174    1.9244   52.5007 H       1  ZINC000523878927    0.3900
     43 H43        -7.3544    3.6313   50.7770 H       1  ZINC000523878927    0.0800
     44 H44        -7.2926    3.3947   52.5505 H       1  ZINC000523878927    0.0800
     45 H45        -5.4782    5.0144   51.3670 H       1  ZINC000523878927    0.1000
     46 H46        -4.9316    3.8759   52.6436 H       1  ZINC000523878927    0.0800
     47 H47        -2.8305    3.6496   51.6959 H       1  ZINC000523878927    0.4000
     48 H48        -0.6277    3.1733   51.0875 H       1  ZINC000523878927    0.4100
     49 H49         0.9029    0.9443   50.8344 H       1  ZINC000523878927    0.1400
     50 H50         2.5111   -0.0230   49.2420 H       1  ZINC000523878927    0.1400
     51 H51         0.8582    2.3646   46.1131 H       1  ZINC000523878927    0.1400
     52 H52        -0.7570    3.3308   47.6991 H       1  ZINC000523878927    0.1500
     53 H53        -4.4381    1.1610   51.4175 H       1  ZINC000523878927    0.0700
     54 H54        -5.2071    1.2432   49.8080 H       1  ZINC000523878927    0.0800
     55 H55       -11.3810   -1.1899   54.0641 H       1  ZINC000523878927    0.0700
     56 H56       -11.4985   -1.6616   52.3518 H       1  ZINC000523878927    0.0700
@<TRIPOS>BOND
     1     1     2    1
     2     1    31    1
     3     1    32    1
     4     1    33    1
     5     2     3    1
     6     2    30    1
     7     2     4    1
     8     4     5    1
     9     4    34    1
    10     4    35    1
    11     5     6    1
    12     5    36    1
    13     5    37    1
    14     6     7    1
    15     6    38    1
    16     6    39    1
    17     7     8    1
    18     7     9    1
    19     7    30    1
    20     9    10    1
    21     9    40    1
    22     9    41    1
    23    10    11   am
    24    10    42    1
    25    11    12    2
    26    11    13   am
    27    13    29    1
    28    13    14    1
    29    14    15    1
    30    14    43    1
    31    14    44    1
    32    15    16    1
    33    15    45    1
    34    15    46    1
    35    16    17    1
    36    16    18    1
    37    16    29    1
    38    18    19   am
    39    18    47    1
    40    19    20    2
    41    19    21   am
    42    21    22    1
    43    21    48    1
    44    22    28   ar
    45    22    23   ar
    46    23    24   ar
    47    23    49    1
    48    24    25   ar
    49    24    50    1
    50    25    26    1
    51    25    27   ar
    52    27    28   ar
    53    27    51    1
    54    28    52    1
    55    29    53    1
    56    29    54    1
    57    30    55    1
    58    30    56    1
@<TRIPOS>SUBSTRUCTURE
     1 ZINC000523878927        1 TEMP              0 ****  ****    0 ROOT


##########                                Name:    ZINC000534890536
##########                DOCK_Rotatable_Bonds:                   6
##########                         Heavy_Atoms:                  30
##########                    Molecular_Weight:             411.476
##########                DOCK_Rotatable_Bonds:                   6
##########                       Formal_Charge:          0.00999957
##########                     HBond_Acceptors:                   7
##########                        HBond_Donors:                   1
##########                         Heavy_Atoms:                  30
##########                          Grid_Score:          -28.774782
##########                     Grid_vdw_energy:          -27.054531
##########                      Grid_es_energy:           -1.720250
##########           Internal_energy_repulsive:           19.167574

@<TRIPOS>MOLECULE
ZINC000534890536
 56 59 1 0 0
SMALL
USER_CHARGES


@<TRIPOS>ATOM
      1 C1         -6.8224    4.4017   58.4580 C.3     1  ZINC000534890536    0.0300
      2 O2         -7.6904    3.5511   57.7061 O.3     1  ZINC000534890536   -0.3200
      3 C3         -7.4279    3.4197   56.3792 C.ar    1  ZINC000534890536    0.1300
      4 C4         -6.4448    4.1976   55.7850 C.ar    1  ZINC000534890536   -0.2100
      5 C5         -6.1797    4.0618   54.4361 C.ar    1  ZINC000534890536   -0.0700
      6 C6         -6.8933    3.1520   53.6782 C.ar    1  ZINC000534890536   -0.1100
      7 C7         -6.6024    3.0063   52.2067 C.3     1  ZINC000534890536   -0.0600
      8 H8         -7.2446    3.6603   51.6170 H       1  ZINC000534890536    0.0900
      9 C9         -6.7476    1.5291   51.7546 C.3     1  ZINC000534890536   -0.1200
     10 C10        -5.8066    1.4472   50.5342 C.3     1  ZINC000534890536    0.1000
     11 N11        -4.8323    2.5410   50.6599 N.am    1  ZINC000534890536   -0.6400
     12 C12        -3.8511    2.8239   49.7803 C.2     1  ZINC000534890536    0.7300
     13 O13        -3.7181    2.1466   48.7793 O.2     1  ZINC000534890536   -0.5700
     14 N14        -3.0173    3.8575   50.0101 N.am    1  ZINC000534890536   -0.7300
     15 C15        -1.9498    4.1639   49.0548 C.3     1  ZINC000534890536    0.1600
     16 H16        -2.3448    4.1092   48.0405 H       1  ZINC000534890536    0.1200
     17 C17        -1.4209    5.5759   49.3190 C.3     1  ZINC000534890536   -0.1300
     18 C18        -0.1366    5.7726   48.5046 C.3     1  ZINC000534890536   -0.1300
     19 C19         0.9488    4.8579   49.0734 C.3     1  ZINC000534890536    0.1100
     20 N20         0.4532    3.4927   49.1952 N.am    1  ZINC000534890536   -0.5600
     21 C21         1.3933    2.4603   49.3036 C.ar    1  ZINC000534890536    0.1000
     22 C22         1.6951    1.6758   48.1995 C.ar    1  ZINC000534890536   -0.0800
     23 C23         2.6235    0.6582   48.3092 C.ar    1  ZINC000534890536   -0.1200
     24 C24         3.2519    0.4198   49.5172 C.ar    1  ZINC000534890536   -0.0800
     25 C25         2.9545    1.1989   50.6206 C.ar    1  ZINC000534890536   -0.1500
     26 C26         2.0309    2.2226   50.5167 C.ar    1  ZINC000534890536    0.1100
     27 F27         1.7405    2.9840   51.5943 F       1  ZINC000534890536   -0.1300
     28 C28        -0.8384    3.1662   49.2118 C.2     1  ZINC000534890536    0.5000
     29 O29        -1.1337    1.9991   49.3594 O.2     1  ZINC000534890536   -0.5100
     30 C30        -5.1072    3.2788   51.9068 C.3     1  ZINC000534890536    0.1300
     31 C31        -7.8734    2.3752   54.2681 C.ar    1  ZINC000534890536   -0.0700
     32 C32        -8.1388    2.5035   55.6177 C.ar    1  ZINC000534890536   -0.1500
     33 H33        -5.8017    4.0243   58.3973 H       1  ZINC000534890536    0.0600
     34 H34        -6.8611    5.4119   58.0504 H       1  ZINC000534890536    0.0600
     35 H35        -7.1425    4.4178   59.4999 H       1  ZINC000534890536    0.1000
     36 H36        -5.8875    4.9089   56.3764 H       1  ZINC000534890536    0.1300
     37 H37        -5.4144    4.6671   53.9730 H       1  ZINC000534890536    0.1300
     38 H38        -6.4182    0.8508   52.5417 H       1  ZINC000534890536    0.0800
     39 H39        -7.7759    1.3141   51.4639 H       1  ZINC000534890536    0.0900
     40 H40        -5.2887    0.4881   50.5292 H       1  ZINC000534890536    0.0700
     41 H41        -6.3805    1.5657   49.6150 H       1  ZINC000534890536    0.0700
     42 H42        -3.1242    4.3987   50.8081 H       1  ZINC000534890536    0.4000
     43 H43        -2.1659    6.3102   49.0126 H       1  ZINC000534890536    0.0900
     44 H44        -1.2039    5.6938   50.3807 H       1  ZINC000534890536    0.0800
     45 H45        -0.3219    5.5156   47.4617 H       1  ZINC000534890536    0.0800
     46 H46         0.1861    6.8113   48.5759 H       1  ZINC000534890536    0.1000
     47 H47         1.8138    4.8693   48.4100 H       1  ZINC000534890536    0.0800
     48 H48         1.2479    5.2218   50.0564 H       1  ZINC000534890536    0.0700
     49 H49         1.2047    1.8603   47.2552 H       1  ZINC000534890536    0.1300
     50 H50         2.8583    0.0477   47.4498 H       1  ZINC000534890536    0.1300
     51 H51         3.9764   -0.3768   49.5997 H       1  ZINC000534890536    0.1400
     52 H52         3.4472    1.0102   51.5631 H       1  ZINC000534890536    0.1400
     53 H53        -4.9366    4.3456   51.7618 H       1  ZINC000534890536    0.0800
     54 H54        -4.4834    2.9006   52.7167 H       1  ZINC000534890536    0.0700
     55 H55        -8.4293    1.6650   53.6740 H       1  ZINC000534890536    0.1300
     56 H56        -8.9043    1.8966   56.0781 H       1  ZINC000534890536    0.1300
@<TRIPOS>BOND
     1     1     2    1
     2     1    33    1
     3     1    34    1
     4     1    35    1
     5     2     3    1
     6     3    32   ar
     7     3     4   ar
     8     4     5   ar
     9     4    36    1
    10     5     6   ar
    11     5    37    1
    12     6     7    1
    13     6    31   ar
    14     7     8    1
    15     7    30    1
    16     7     9    1
    17     9    10    1
    18     9    38    1
    19     9    39    1
    20    10    11    1
    21    10    40    1
    22    10    41    1
    23    11    12   am
    24    11    30    1
    25    12    13    2
    26    12    14   am
    27    14    15    1
    28    14    42    1
    29    15    16    1
    30    15    28    1
    31    15    17    1
    32    17    18    1
    33    17    43    1
    34    17    44    1
    35    18    19    1
    36    18    45    1
    37    18    46    1
    38    19    20    1
    39    19    47    1
    40    19    48    1
    41    20    21    1
    42    20    28   am
    43    21    26   ar
    44    21    22   ar
    45    22    23   ar
    46    22    49    1
    47    23    24   ar
    48    23    50    1
    49    24    25   ar
    50    24    51    1
    51    25    26   ar
    52    25    52    1
    53    26    27    1
    54    28    29    2
    55    30    53    1
    56    30    54    1
    57    31    32   ar
    58    31    55    1
    59    32    56    1
@<TRIPOS>SUBSTRUCTURE
     1 ZINC000534890536        1 TEMP              0 ****  ****    0 ROOT


##########                                Name:    ZINC000373864439
##########                DOCK_Rotatable_Bonds:                   7
##########                         Heavy_Atoms:                  23
##########                    Molecular_Weight:              344.45
##########                DOCK_Rotatable_Bonds:                   7
##########                       Formal_Charge:          -0.0300001
##########                     HBond_Acceptors:                   7
##########                        HBond_Donors:                   1
##########                         Heavy_Atoms:                  23
##########                          Grid_Score:          -28.769779
##########                     Grid_vdw_energy:          -27.387890
##########                      Grid_es_energy:           -1.381889
##########           Internal_energy_repulsive:           22.635422

@<TRIPOS>MOLECULE
ZINC000373864439
 48 49 1 0 0
SMALL
USER_CHARGES


@<TRIPOS>ATOM
      1 C1         -7.7116    1.5488   52.7508 C.3     1  ZINC000373864439   -0.1500
      2 C2         -6.7213    1.0283   51.7071 C.3     1  ZINC000373864439   -0.6300
      3 S3         -6.3986    2.3250   50.4802 S.o2    1  ZINC000373864439    2.6100
      4 O4         -5.4308    1.8881   49.5359 O.2     1  ZINC000373864439   -0.9500
      5 O5         -7.6151    2.9258   50.0579 O.2     1  ZINC000373864439   -0.9600
      6 N6         -5.6282    3.5177   51.3325 N.am    1  ZINC000373864439   -1.1200
      7 C7         -4.3579    3.2339   52.0048 C.3     1  ZINC000373864439    0.1100
      8 C8         -3.2764    4.1745   51.4696 C.3     1  ZINC000373864439    0.0500
      9 N9         -2.3153    3.4083   50.6652 N.3     1  ZINC000373864439   -0.5300
     10 C10        -0.9836    3.4201   51.2842 C.3     1  ZINC000373864439    0.0400
     11 C11        -0.0475    2.4967   50.5012 C.3     1  ZINC000373864439   -0.1300
     12 C12         0.0393    2.9772   49.0500 C.3     1  ZINC000373864439    0.1800
     13 F13         0.5857    4.2648   49.0158 F       1  ZINC000373864439   -0.2100
     14 C14         0.9137    2.0380   48.2598 C.ar    1  ZINC000373864439   -0.1500
     15 C15         1.3772    0.8731   48.8392 C.ar    1  ZINC000373864439   -0.0700
     16 C16         2.1800    0.0110   48.1147 C.ar    1  ZINC000373864439   -0.1600
     17 C17         2.5201    0.3124   46.8092 C.ar    1  ZINC000373864439   -0.0700
     18 C18         2.0586    1.4763   46.2248 C.ar    1  ZINC000373864439   -0.2100
     19 C19         1.2489    2.3400   46.9476 C.ar    1  ZINC000373864439    0.1400
     20 O20         0.7936    3.4854   46.3753 O.3     1  ZINC000373864439   -0.3100
     21 C21         0.7517    3.5249   44.9474 C.3     1  ZINC000373864439    0.0200
     22 C22        -1.3665    3.0017   48.4437 C.3     1  ZINC000373864439   -0.1300
     23 C23        -2.2643    3.9106   49.2863 C.3     1  ZINC000373864439    0.0600
     24 H24        -8.6449    1.8251   52.2602 H       1  ZINC000373864439    0.0700
     25 H25        -7.9054    0.7697   53.4880 H       1  ZINC000373864439    0.0800
     26 H26        -7.2899    2.4225   53.2479 H       1  ZINC000373864439    0.0700
     27 H27        -5.7880    0.7521   52.1977 H       1  ZINC000373864439    0.1300
     28 H28        -7.1430    0.1547   51.2100 H       1  ZINC000373864439    0.1300
     29 H29        -6.0182    4.4043   51.3866 H       1  ZINC000373864439    0.4200
     30 H30        -4.4730    3.3857   53.0780 H       1  ZINC000373864439    0.0700
     31 H31        -4.0682    2.2007   51.8129 H       1  ZINC000373864439    0.0900
     32 H32        -3.7377    4.9432   50.8495 H       1  ZINC000373864439    0.0900
     33 H33        -2.7577    4.6445   52.3052 H       1  ZINC000373864439    0.0400
     34 H34        -0.5864    4.4350   51.2718 H       1  ZINC000373864439    0.0400
     35 H35        -1.0588    3.0722   52.3144 H       1  ZINC000373864439    0.0900
     36 H36         0.9448    2.5177   50.9515 H       1  ZINC000373864439    0.0800
     37 H37        -0.4369    1.4788   50.5248 H       1  ZINC000373864439    0.1000
     38 H38         1.1130    0.6353   49.8590 H       1  ZINC000373864439    0.1300
     39 H39         2.5421   -0.8990   48.5698 H       1  ZINC000373864439    0.1300
     40 H40         3.1475   -0.3623   46.2455 H       1  ZINC000373864439    0.1300
     41 H41         2.3249    1.7114   45.2049 H       1  ZINC000373864439    0.1300
     42 H42         0.3701    4.4925   44.6217 H       1  ZINC000373864439    0.1000
     43 H43         1.7563    3.3783   44.5503 H       1  ZINC000373864439    0.0600
     44 H44         0.0972    2.7341   44.5810 H       1  ZINC000373864439    0.0600
     45 H45        -1.3165    3.3838   47.4240 H       1  ZINC000373864439    0.0800
     46 H46        -1.7766    1.9919   48.4350 H       1  ZINC000373864439    0.1000
     47 H47        -3.2698    3.9189   48.8655 H       1  ZINC000373864439    0.0800
     48 H48        -1.8612    4.9232   49.2833 H       1  ZINC000373864439    0.0400
@<TRIPOS>BOND
     1     1     2    1
     2     1    24    1
     3     1    25    1
     4     1    26    1
     5     2     3    1
     6     2    27    1
     7     2    28    1
     8     3     4    2
     9     3     5    2
    10     3     6   am
    11     6     7    1
    12     6    29    1
    13     7     8    1
    14     7    30    1
    15     7    31    1
    16     8     9    1
    17     8    32    1
    18     8    33    1
    19     9    23    1
    20     9    10    1
    21    10    11    1
    22    10    34    1
    23    10    35    1
    24    11    12    1
    25    11    36    1
    26    11    37    1
    27    12    13    1
    28    12    14    1
    29    12    22    1
    30    14    19   ar
    31    14    15   ar
    32    15    16   ar
    33    15    38    1
    34    16    17   ar
    35    16    39    1
    36    17    18   ar
    37    17    40    1
    38    18    19   ar
    39    18    41    1
    40    19    20    1
    41    20    21    1
    42    21    42    1
    43    21    43    1
    44    21    44    1
    45    22    23    1
    46    22    45    1
    47    22    46    1
    48    23    47    1
    49    23    48    1
@<TRIPOS>SUBSTRUCTURE
     1 ZINC000373864439        1 TEMP              0 ****  ****    0 ROOT


##########                                Name:    ZINC000440379747
##########                DOCK_Rotatable_Bonds:                   8
##########                         Heavy_Atoms:                  27
##########                    Molecular_Weight:             394.452
##########                DOCK_Rotatable_Bonds:                   8
##########                       Formal_Charge:           0.0199995
##########                     HBond_Acceptors:                  10
##########                        HBond_Donors:                   3
##########                         Heavy_Atoms:                  27
##########                          Grid_Score:          -28.729956
##########                     Grid_vdw_energy:          -26.583725
##########                      Grid_es_energy:           -2.146231
##########           Internal_energy_repulsive:           15.864710

@<TRIPOS>MOLECULE
ZINC000440379747
 49 51 1 0 0
SMALL
USER_CHARGES


@<TRIPOS>ATOM
      1 C1          0.0160    3.0037   46.0052 C.3     1  ZINC000440379747   -0.1800
      2 C2         -1.0908    2.6602   46.9687 C.2     1  ZINC000440379747    0.5200
      3 O3         -1.9032    1.8071   46.6798 O.2     1  ZINC000440379747   -0.5200
      4 N4         -1.1779    3.3010   48.1512 N.am    1  ZINC000440379747   -0.5500
      5 C5         -0.2589    4.3460   48.6101 C.3     1  ZINC000440379747    0.1100
      6 C6         -0.7742    4.7549   49.9996 C.3     1  ZINC000440379747   -0.0900
      7 C7         -1.9866    3.8808   50.2292 C.ar    1  ZINC000440379747   -0.1100
      8 C8         -2.8547    3.8023   51.2998 C.ar    1  ZINC000440379747   -0.0700
      9 C9         -3.9130    2.9027   51.2740 C.ar    1  ZINC000440379747    0.1200
     10 N10        -4.7935    2.8223   52.3573 N.am    1  ZINC000440379747   -0.6400
     11 C11        -5.6778    3.8142   52.5819 C.2     1  ZINC000440379747    0.5100
     12 O12        -5.7099    4.7774   51.8439 O.2     1  ZINC000440379747   -0.4900
     13 C13        -6.6182    3.7283   53.7389 C.2     1  ZINC000440379747    0.5200
     14 O14        -7.7633    3.3663   53.5645 O.2     1  ZINC000440379747   -0.5100
     15 N15        -6.1951    4.0529   54.9767 N.am    1  ZINC000440379747   -0.5800
     16 C16        -4.8371    4.5059   55.3292 C.3     1  ZINC000440379747    0.1000
     17 C17        -5.0161    5.3130   56.6393 C.3     1  ZINC000440379747   -0.1300
     18 C18        -6.1176    4.4935   57.3621 C.3     1  ZINC000440379747   -0.1600
     19 C19        -7.0130    4.0199   56.1978 C.3     1  ZINC000440379747    0.1500
     20 H20        -7.8696    4.6859   56.0943 H       1  ZINC000440379747    0.1000
     21 C21        -7.4937    2.5910   56.4591 C.3     1  ZINC000440379747   -0.6500
     22 S22        -9.2795    2.6026   56.7776 S.o2    1  ZINC000440379747    2.6200
     23 N23        -9.6187    1.0632   57.2848 N.am    1  ZINC000440379747   -1.2500
     24 O24        -9.5801    3.4166   57.9029 O.2     1  ZINC000440379747   -0.9500
     25 O25       -10.0020    2.7381   55.5615 O.2     1  ZINC000440379747   -0.9500
     26 C26        -4.0925    2.0837   50.1663 C.ar    1  ZINC000440379747   -0.1000
     27 C27        -3.2249    2.1637   49.0990 C.ar    1  ZINC000440379747   -0.1400
     28 C28        -2.1631    3.0703   49.1182 C.ar    1  ZINC000440379747    0.1400
     29 H29        -0.0763    2.3872   45.1112 H       1  ZINC000440379747    0.1000
     30 H30        -0.0555    4.0559   45.7300 H       1  ZINC000440379747    0.1000
     31 H31         0.9801    2.8164   46.4779 H       1  ZINC000440379747    0.1000
     32 H32         0.7548    3.9522   48.6836 H       1  ZINC000440379747    0.0900
     33 H33        -0.2859    5.1982   47.9311 H       1  ZINC000440379747    0.0900
     34 H34        -0.0162    4.5605   50.7584 H       1  ZINC000440379747    0.0900
     35 H35        -1.0577    5.8073   50.0052 H       1  ZINC000440379747    0.1000
     36 H36        -2.7107    4.4410   52.1587 H       1  ZINC000440379747    0.1400
     37 H37        -4.7678    2.0527   52.9471 H       1  ZINC000440379747    0.4200
     38 H38        -4.1834    3.6501   55.4972 H       1  ZINC000440379747    0.0800
     39 H39        -4.4339    5.1437   54.5427 H       1  ZINC000440379747    0.1000
     40 H40        -4.0937    5.3249   57.2199 H       1  ZINC000440379747    0.1000
     41 H41        -5.3573    6.3269   56.4301 H       1  ZINC000440379747    0.0800
     42 H42        -5.6832    3.6444   57.8893 H       1  ZINC000440379747    0.1000
     43 H43        -6.6823    5.1264   58.0469 H       1  ZINC000440379747    0.1000
     44 H44        -7.2842    1.9720   55.5869 H       1  ZINC000440379747    0.1500
     45 H45        -6.9727    2.1854   57.3263 H       1  ZINC000440379747    0.1400
     46 H46        -9.4363    0.3093   56.7023 H       1  ZINC000440379747    0.4100
     47 H47       -10.0000    0.9153   58.1644 H       1  ZINC000440379747    0.4200
     48 H48        -4.9135    1.3826   50.1420 H       1  ZINC000440379747    0.1400
     49 H49        -3.3693    1.5241   48.2408 H       1  ZINC000440379747    0.1500
@<TRIPOS>BOND
     1     1     2    1
     2     1    29    1
     3     1    30    1
     4     1    31    1
     5     2     3    2
     6     2     4   am
     7     4    28    1
     8     4     5    1
     9     5     6    1
    10     5    32    1
    11     5    33    1
    12     6     7    1
    13     6    34    1
    14     6    35    1
    15     7    28   ar
    16     7     8   ar
    17     8     9   ar
    18     8    36    1
    19     9    10    1
    20     9    26   ar
    21    10    11   am
    22    10    37    1
    23    11    12    2
    24    11    13    1
    25    13    14    2
    26    13    15   am
    27    15    19    1
    28    15    16    1
    29    16    17    1
    30    16    38    1
    31    16    39    1
    32    17    18    1
    33    17    40    1
    34    17    41    1
    35    18    19    1
    36    18    42    1
    37    18    43    1
    38    19    20    1
    39    19    21    1
    40    21    22    1
    41    21    44    1
    42    21    45    1
    43    22    23   am
    44    22    24    2
    45    22    25    2
    46    23    46    1
    47    23    47    1
    48    26    27   ar
    49    26    48    1
    50    27    28   ar
    51    27    49    1
@<TRIPOS>SUBSTRUCTURE
     1 ZINC000440379747        1 TEMP              0 ****  ****    0 ROOT


##########                                Name:    ZINC001141221454
##########                DOCK_Rotatable_Bonds:                   7
##########                         Heavy_Atoms:                  27
##########                    Molecular_Weight:             369.439
##########                DOCK_Rotatable_Bonds:                   7
##########                       Formal_Charge:          0.00999935
##########                     HBond_Acceptors:                   6
##########                        HBond_Donors:                   1
##########                         Heavy_Atoms:                  27
##########                          Grid_Score:          -28.712042
##########                     Grid_vdw_energy:          -27.379339
##########                      Grid_es_energy:           -1.332703
##########           Internal_energy_repulsive:           14.919981

@<TRIPOS>MOLECULE
ZINC001141221454
 51 54 1 0 0
SMALL
USER_CHARGES


@<TRIPOS>ATOM
      1 C1         -6.4643    1.4844   51.1729 C.3     1  ZINC001141221454    0.0300
      2 O2         -5.3262    1.5953   50.3159 O.3     1  ZINC001141221454   -0.3100
      3 C3         -4.5705    2.7192   50.4359 C.ar    1  ZINC001141221454    0.0900
      4 C4         -4.9129    3.6904   51.3637 C.ar    1  ZINC001141221454   -0.1800
      5 C5         -4.1430    4.8321   51.4843 C.ar    1  ZINC001141221454   -0.0900
      6 C6         -3.0319    5.0068   50.6809 C.ar    1  ZINC001141221454   -0.1200
      7 C7         -2.6870    4.0405   49.7535 C.ar    1  ZINC001141221454   -0.0800
      8 C8         -1.4752    4.2346   48.8789 C.3     1  ZINC001141221454    0.0900
      9 N9         -0.5032    3.1658   49.1448 N.3     1  ZINC001141221454   -0.5100
     10 C10         0.4517    3.0213   48.0156 C.3     1  ZINC001141221454    0.0300
     11 C11         1.6591    2.2909   48.6591 C.3     1  ZINC001141221454   -0.0700
     12 C12         1.7194    2.9117   50.0669 C.3     1  ZINC001141221454   -0.1000
     13 C13         2.9759    3.6130   50.5665 C.3     1  ZINC001141221454   -0.1400
     14 C14         2.5473    2.2747   51.1754 C.3     1  ZINC001141221454   -0.1800
     15 H15         2.1344    2.2895   52.1840 H       1  ZINC001141221454    0.1300
     16 C16         3.3628    1.0571   50.8244 C.2     1  ZINC001141221454    0.5500
     17 O17         4.5725    1.0942   50.9026 O.2     1  ZINC001141221454   -0.5300
     18 N18         2.7479   -0.0733   50.4237 N.am    1  ZINC001141221454   -0.7300
     19 C19         3.5407   -1.2565   50.0808 C.3     1  ZINC001141221454    0.1700
     20 C20         4.2372   -1.0301   48.7636 C.ar    1  ZINC001141221454   -0.1600
     21 C21         3.5180   -1.0397   47.5785 C.ar    1  ZINC001141221454   -0.0600
     22 C22         4.2007   -0.8264   46.3905 C.ar    1  ZINC001141221454   -0.1700
     23 C23         5.5653   -0.6128   46.4271 C.ar    1  ZINC001141221454    0.1100
     24 N24         6.2174   -0.6104   47.5736 N.ar    1  ZINC001141221454   -0.4800
     25 C25         5.6003   -0.8045   48.7225 C.ar    1  ZINC001141221454    0.1200
     26 C26         0.3209    3.4817   50.3341 C.3     1  ZINC001141221454    0.0700
     27 C27        -3.4503    2.8938   49.6325 C.ar    1  ZINC001141221454    0.0900
     28 F28        -3.1137    1.9495   48.7267 F       1  ZINC001141221454   -0.1300
     29 H29        -6.9777    0.5434   50.9751 H       1  ZINC001141221454    0.1000
     30 H30        -6.1397    1.5094   52.2132 H       1  ZINC001141221454    0.0600
     31 H31        -7.1437    2.3156   50.9842 H       1  ZINC001141221454    0.0600
     32 H32        -5.7810    3.5555   51.9918 H       1  ZINC001141221454    0.1400
     33 H33        -4.4102    5.5888   52.2070 H       1  ZINC001141221454    0.1300
     34 H34        -2.4322    5.8998   50.7773 H       1  ZINC001141221454    0.1300
     35 H35        -1.7742    4.2014   47.8313 H       1  ZINC001141221454    0.0600
     36 H36        -1.0210    5.2012   49.0967 H       1  ZINC001141221454    0.0900
     37 H37         0.0168    2.4170   47.2195 H       1  ZINC001141221454    0.0800
     38 H38         0.7507    3.9990   47.6377 H       1  ZINC001141221454    0.0500
     39 H39         1.4756    1.2181   48.7174 H       1  ZINC001141221454    0.0900
     40 H40         2.5753    2.4978   48.1060 H       1  ZINC001141221454    0.0700
     41 H41         3.8471    3.6122   49.9116 H       1  ZINC001141221454    0.1000
     42 H42         2.8449    4.5080   51.1748 H       1  ZINC001141221454    0.1100
     43 H43         1.7803   -0.1034   50.3623 H       1  ZINC001141221454    0.4000
     44 H44         4.2833   -1.4343   50.8586 H       1  ZINC001141221454    0.0800
     45 H45         2.8842   -2.1229   50.0003 H       1  ZINC001141221454    0.0800
     46 H46         2.4514   -1.2097   47.5805 H       1  ZINC001141221454    0.1400
     47 H47         3.6724   -0.8274   45.4485 H       1  ZINC001141221454    0.1400
     48 H48         6.1044   -0.4462   45.5062 H       1  ZINC001141221454    0.1600
     49 H49         6.1678   -0.7957   49.6413 H       1  ZINC001141221454    0.1600
     50 H50         0.3784    4.5615   50.4718 H       1  ZINC001141221454    0.0500
     51 H51        -0.1089    3.0149   51.2203 H       1  ZINC001141221454    0.0900
@<TRIPOS>BOND
     1     1     2    1
     2     1    29    1
     3     1    30    1
     4     1    31    1
     5     2     3    1
     6     3    27   ar
     7     3     4   ar
     8     4     5   ar
     9     4    32    1
    10     5     6   ar
    11     5    33    1
    12     6     7   ar
    13     6    34    1
    14     7     8    1
    15     7    27   ar
    16     8     9    1
    17     8    35    1
    18     8    36    1
    19     9    26    1
    20     9    10    1
    21    10    11    1
    22    10    37    1
    23    10    38    1
    24    11    12    1
    25    11    39    1
    26    11    40    1
    27    12    14    1
    28    12    13    1
    29    12    26    1
    30    13    14    1
    31    13    41    1
    32    13    42    1
    33    14    15    1
    34    14    16    1
    35    16    17    2
    36    16    18   am
    37    18    19    1
    38    18    43    1
    39    19    20    1
    40    19    44    1
    41    19    45    1
    42    20    25   ar
    43    20    21   ar
    44    21    22   ar
    45    21    46    1
    46    22    23   ar
    47    22    47    1
    48    23    24   ar
    49    23    48    1
    50    24    25   ar
    51    25    49    1
    52    26    50    1
    53    26    51    1
    54    27    28    1
@<TRIPOS>SUBSTRUCTURE
     1 ZINC001141221454        1 TEMP              0 ****  ****    0 ROOT


##########                                Name:    ZINC000885154703
##########                DOCK_Rotatable_Bonds:                   5
##########                         Heavy_Atoms:                  24
##########                    Molecular_Weight:             396.259
##########                DOCK_Rotatable_Bonds:                   5
##########                       Formal_Charge:          -0.0099998
##########                     HBond_Acceptors:                   6
##########                        HBond_Donors:                   1
##########                         Heavy_Atoms:                  24
##########                          Grid_Score:          -28.708546
##########                     Grid_vdw_energy:          -28.959688
##########                      Grid_es_energy:            0.251143
##########           Internal_energy_repulsive:            7.511550

@<TRIPOS>MOLECULE
ZINC000885154703
 43 45 1 0 0
SMALL
USER_CHARGES


@<TRIPOS>ATOM
      1 C1         -7.2892    2.5523   53.1574 C.3     1  ZINC000885154703   -0.1500
      2 C2         -7.1609    1.5223   52.0332 C.3     1  ZINC000885154703   -0.0300
      3 C3         -5.9669    1.8588   51.1775 C.2     1  ZINC000885154703    0.1700
      4 N4         -5.8677    1.6857   49.8935 N.2     1  ZINC000885154703   -0.3800
      5 O5         -4.7811    2.0570   49.5025 O.3     1  ZINC000885154703    0.0800
      6 C6         -4.0622    2.5162   50.5312 C.2     1  ZINC000885154703    0.1800
      7 C7         -2.6615    3.0687   50.4715 C.3     1  ZINC000885154703    0.0000
      8 H8         -2.1314    2.8424   51.3968 H       1  ZINC000885154703    0.1300
      9 C9         -2.7042    4.5942   50.2466 C.3     1  ZINC000885154703   -0.1200
     10 C10        -1.5039    4.8735   49.3082 C.3     1  ZINC000885154703   -0.1300
     11 C11        -1.5202    3.6499   48.3588 C.3     1  ZINC000885154703    0.1400
     12 H12        -2.2640    3.7861   47.5738 H       1  ZINC000885154703    0.1000
     13 N13        -0.1937    3.4361   47.7752 N.am    1  ZINC000885154703   -0.7100
     14 C14        -0.0564    2.6651   46.6783 C.2     1  ZINC000885154703    0.5700
     15 O15        -1.0331    2.1460   46.1739 O.2     1  ZINC000885154703   -0.5100
     16 C16         1.2809    2.4510   46.0889 C.ar    1  ZINC000885154703   -0.1600
     17 C17         2.1767    1.5584   46.6852 C.ar    1  ZINC000885154703    0.1500
     18 F18         1.8221    0.8882   47.8034 F       1  ZINC000885154703   -0.1200
     19 C19         3.4270    1.3632   46.1266 C.ar    1  ZINC000885154703   -0.1500
     20 C20         3.7904    2.0484   44.9828 C.ar    1  ZINC000885154703   -0.0400
     21 C21         2.9069    2.9341   44.3875 C.ar    1  ZINC000885154703   -0.1100
     22 Br22        3.4169    3.8654   42.8227 Br      1  ZINC000885154703   -0.0300
     23 C23         1.6546    3.1348   44.9299 C.ar    1  ZINC000885154703    0.0100
     24 C24         0.6958    4.0985   44.2796 C.3     1  ZINC000885154703   -0.1300
     25 C25        -1.9083    2.4673   49.2720 C.3     1  ZINC000885154703   -0.1300
     26 N26        -4.8106    2.3989   51.6017 N.2     1  ZINC000885154703   -0.4800
     27 H27        -6.3874    2.5363   53.7695 H       1  ZINC000885154703    0.0600
     28 H28        -7.4188    3.5453   52.7271 H       1  ZINC000885154703    0.0600
     29 H29        -8.1528    2.3089   53.7763 H       1  ZINC000885154703    0.0700
     30 H30        -7.0313    0.5292   52.4635 H       1  ZINC000885154703    0.1000
     31 H31        -8.0627    1.5382   51.4212 H       1  ZINC000885154703    0.0900
     32 H32        -3.6391    4.8830   49.7663 H       1  ZINC000885154703    0.0800
     33 H33        -2.5806    5.1228   51.1918 H       1  ZINC000885154703    0.0900
     34 H34        -1.6565    5.7974   48.7504 H       1  ZINC000885154703    0.0800
     35 H35        -0.5726    4.9117   49.8733 H       1  ZINC000885154703    0.0800
     36 H36         0.5859    3.8492   48.1784 H       1  ZINC000885154703    0.4000
     37 H37         4.1207    0.6742   46.5854 H       1  ZINC000885154703    0.1500
     38 H38         4.7680    1.8929   44.5511 H       1  ZINC000885154703    0.1500
     39 H39         0.0916    3.5686   43.5432 H       1  ZINC000885154703    0.0900
     40 H40         0.0453    4.5321   45.0393 H       1  ZINC000885154703    0.0800
     41 H41         1.2570    4.8919   43.7860 H       1  ZINC000885154703    0.0900
     42 H42        -1.0119    1.9499   49.6140 H       1  ZINC000885154703    0.0900
     43 H43        -2.5561    1.7762   48.7329 H       1  ZINC000885154703    0.0800
@<TRIPOS>BOND
     1     1     2    1
     2     1    27    1
     3     1    28    1
     4     1    29    1
     5     2     3    1
     6     2    30    1
     7     2    31    1
     8     3    26    1
     9     3     4    2
    10     4     5    1
    11     5     6    1
    12     6     7    1
    13     6    26    2
    14     7     8    1
    15     7    25    1
    16     7     9    1
    17     9    10    1
    18     9    32    1
    19     9    33    1
    20    10    11    1
    21    10    34    1
    22    10    35    1
    23    11    12    1
    24    11    13    1
    25    11    25    1
    26    13    14   am
    27    13    36    1
    28    14    15    2
    29    14    16    1
    30    16    23   ar
    31    16    17   ar
    32    17    18    1
    33    17    19   ar
    34    19    20   ar
    35    19    37    1
    36    20    21   ar
    37    20    38    1
    38    21    22    1
    39    21    23   ar
    40    23    24    1
    41    24    39    1
    42    24    40    1
    43    24    41    1
    44    25    42    1
    45    25    43    1
@<TRIPOS>SUBSTRUCTURE
     1 ZINC000885154703        1 TEMP              0 ****  ****    0 ROOT


##########                                Name:    ZINC000281092425
##########                DOCK_Rotatable_Bonds:                   8
##########                         Heavy_Atoms:                  23
##########                    Molecular_Weight:             332.304
##########                DOCK_Rotatable_Bonds:                   8
##########                       Formal_Charge:         2.98023e-08
##########                     HBond_Acceptors:                   9
##########                        HBond_Donors:                   2
##########                         Heavy_Atoms:                  23
##########                          Grid_Score:          -28.699654
##########                     Grid_vdw_energy:          -27.068470
##########                      Grid_es_energy:           -1.631184
##########           Internal_energy_repulsive:           14.438349

@<TRIPOS>MOLECULE
ZINC000281092425
 41 42 1 0 0
SMALL
USER_CHARGES


@<TRIPOS>ATOM
      1 O1         -1.0121    2.0632   47.8492 O.2     1  ZINC000281092425   -0.1800
      2 N2         -1.9864    2.3296   48.5299 N.pl3   1  ZINC000281092425    0.0400
      3 O3         -3.1053    2.2199   48.0612 O.2     1  ZINC000281092425   -0.1500
      4 C4         -1.8110    2.7809   49.9285 C.ar    1  ZINC000281092425   -0.1200
      5 C5         -0.5413    2.9051   50.4593 C.ar    1  ZINC000281092425    0.0200
      6 C6         -0.3733    3.3261   51.7644 C.ar    1  ZINC000281092425   -0.2200
      7 C7         -1.4818    3.6261   52.5464 C.ar    1  ZINC000281092425    0.3000
      8 N8         -1.3123    4.0520   53.8657 N.pl3   1  ZINC000281092425   -0.7200
      9 C9         -1.4117    3.0886   54.9649 C.3     1  ZINC000281092425    0.1200
     10 C10        -1.5024    3.8397   56.2947 C.3     1  ZINC000281092425   -0.0900
     11 H11        -0.7687    4.6457   56.3076 H       1  ZINC000281092425    0.0900
     12 C12        -2.9066    4.4256   56.4548 C.3     1  ZINC000281092425    0.0800
     13 O13        -2.9784    5.6823   55.7785 O.3     1  ZINC000281092425   -0.5700
     14 C14        -1.2185    2.8735   57.4466 C.3     1  ZINC000281092425   -0.1100
     15 H15        -1.9583    2.0733   57.4707 H       1  ZINC000281092425    0.0900
     16 C16         0.2187    2.2944   57.3409 C.3     1  ZINC000281092425   -0.1600
     17 C17         0.5283    2.0020   58.8307 C.3     1  ZINC000281092425    0.0500
     18 O18        -0.0936    3.0719   59.5600 O.3     1  ZINC000281092425   -0.3900
     19 C19        -1.1764    3.6236   58.7952 C.3     1  ZINC000281092425    0.0700
     20 C20        -2.7582    3.5021   52.0145 C.ar    1  ZINC000281092425   -0.2800
     21 C21        -2.9220    3.0843   50.7034 C.ar    1  ZINC000281092425    0.2300
     22 O22        -4.1701    2.9624   50.1796 O.3     1  ZINC000281092425   -0.2900
     23 C23        -5.0415    2.0111   50.7940 C.3     1  ZINC000281092425    0.4100
     24 F24        -5.8171    2.6498   51.7675 F       1  ZINC000281092425   -0.1900
     25 F25        -5.8794    1.4514   49.8235 F       1  ZINC000281092425   -0.1900
     26 H26         0.3215    2.6724   49.8527 H       1  ZINC000281092425    0.1600
     27 H27         0.6201    3.4217   52.1771 H       1  ZINC000281092425    0.1500
     28 H28        -1.1289    4.9856   54.0542 H       1  ZINC000281092425    0.4100
     29 H29        -2.3036    2.4764   54.8319 H       1  ZINC000281092425    0.0800
     30 H30        -0.5291    2.4490   54.9682 H       1  ZINC000281092425    0.0800
     31 H31        -3.6374    3.7399   56.0261 H       1  ZINC000281092425    0.0500
     32 H32        -3.1215    4.5701   57.5137 H       1  ZINC000281092425    0.0500
     33 H33        -3.8427    6.1119   55.8375 H       1  ZINC000281092425    0.3800
     34 H34         0.2308    1.3785   56.7500 H       1  ZINC000281092425    0.0800
     35 H35         0.9103    3.0318   56.9334 H       1  ZINC000281092425    0.0800
     36 H36         0.0994    1.0441   59.1252 H       1  ZINC000281092425    0.0600
     37 H37         1.6048    2.0037   59.0008 H       1  ZINC000281092425    0.0900
     38 H38        -1.0019    4.6851   58.6197 H       1  ZINC000281092425    0.0800
     39 H39        -2.1155    3.4857   59.3311 H       1  ZINC000281092425    0.0700
     40 H40        -3.6216    3.7347   52.6201 H       1  ZINC000281092425    0.1500
     41 H41        -4.4491    1.2238   51.2603 H       1  ZINC000281092425    0.1900
@<TRIPOS>BOND
     1     1     2    2
     2     2     3    2
     3     2     4    1
     4     4    21   ar
     5     4     5   ar
     6     5     6   ar
     7     5    26    1
     8     6     7   ar
     9     6    27    1
    10     7     8    1
    11     7    20   ar
    12     8     9    1
    13     8    28    1
    14     9    10    1
    15     9    29    1
    16     9    30    1
    17    10    11    1
    18    10    12    1
    19    10    14    1
    20    12    13    1
    21    12    31    1
    22    12    32    1
    23    13    33    1
    24    14    15    1
    25    14    19    1
    26    14    16    1
    27    16    17    1
    28    16    34    1
    29    16    35    1
    30    17    18    1
    31    17    36    1
    32    17    37    1
    33    18    19    1
    34    19    38    1
    35    19    39    1
    36    20    21   ar
    37    20    40    1
    38    21    22    1
    39    22    23    1
    40    23    24    1
    41    23    25    1
    42    23    41    1
@<TRIPOS>SUBSTRUCTURE
     1 ZINC000281092425        1 TEMP              0 ****  ****    0 ROOT


##########                                Name:    ZINC000171059239
##########                DOCK_Rotatable_Bonds:                   8
##########                         Heavy_Atoms:                  25
##########                    Molecular_Weight:              333.39
##########                DOCK_Rotatable_Bonds:                   8
##########                       Formal_Charge:         1.10269e-06
##########                     HBond_Acceptors:                   5
##########                        HBond_Donors:                   4
##########                         Heavy_Atoms:                  25
##########                          Grid_Score:          -28.688437
##########                     Grid_vdw_energy:          -27.292141
##########                      Grid_es_energy:           -1.396295
##########           Internal_energy_repulsive:            8.016285

@<TRIPOS>MOLECULE
ZINC000171059239
 44 46 1 0 0
SMALL
USER_CHARGES


@<TRIPOS>ATOM
      1 N1         -6.9953   -1.3515   52.0196 N.am    1  ZINC000171059239   -0.8500
      2 C2         -8.0399   -0.5161   52.1845 C.2     1  ZINC000171059239    0.5600
      3 O3         -9.1669   -0.9625   52.2742 O.2     1  ZINC000171059239   -0.5400
      4 C4         -7.8150    0.9435   52.2560 C.ar    1  ZINC000171059239   -0.1400
      5 C5         -8.8729    1.8016   52.5592 C.ar    1  ZINC000171059239   -0.0900
      6 C6         -8.6562    3.1626   52.6248 C.ar    1  ZINC000171059239   -0.1200
      7 C7         -7.3936    3.6771   52.3902 C.ar    1  ZINC000171059239   -0.0800
      8 C8         -6.3403    2.8318   52.0886 C.ar    1  ZINC000171059239   -0.0900
      9 C9         -4.9685    3.4012   51.8342 C.3     1  ZINC000171059239   -0.0900
     10 C10        -4.3506    2.7168   50.6132 C.3     1  ZINC000171059239    0.1400
     11 N11        -3.0582    3.3356   50.3084 N.am    1  ZINC000171059239   -0.7400
     12 C12        -2.2367    2.7691   49.4026 C.2     1  ZINC000171059239    0.7000
     13 O13        -2.5689    1.7452   48.8372 O.2     1  ZINC000171059239   -0.5700
     14 N14        -1.0469    3.3374   49.1234 N.am    1  ZINC000171059239   -0.6800
     15 C15        -0.1959    2.7505   48.1849 C.ar    1  ZINC000171059239    0.1700
     16 C16         0.9326    2.0168   48.6082 C.ar    1  ZINC000171059239   -0.0600
     17 C17         1.2287    1.8577   49.9710 C.ar    1  ZINC000171059239   -0.1100
     18 C18         2.3260    1.1428   50.3434 C.ar    1  ZINC000171059239   -0.1100
     19 C19         3.1625    0.5651   49.3904 C.ar    1  ZINC000171059239   -0.1200
     20 C20         2.9064    0.6987   48.0603 C.ar    1  ZINC000171059239   -0.1000
     21 C21         1.7822    1.4295   47.6383 C.ar    1  ZINC000171059239   -0.0400
     22 C22         1.4867    1.5874   46.2737 C.ar    1  ZINC000171059239   -0.1200
     23 C23         0.3907    2.3003   45.8935 C.ar    1  ZINC000171059239   -0.0900
     24 C24        -0.4536    2.8777   46.8370 C.ar    1  ZINC000171059239   -0.1200
     25 C25        -6.5422    1.4687   52.0261 C.ar    1  ZINC000171059239   -0.0500
     26 H26        -7.1427   -2.3092   51.9738 H       1  ZINC000171059239    0.4100
     27 H27        -6.0965   -0.9949   51.9428 H       1  ZINC000171059239    0.4000
     28 H28        -9.8592    1.4012   52.7417 H       1  ZINC000171059239    0.1300
     29 H29        -9.4741    3.8278   52.8593 H       1  ZINC000171059239    0.1300
     30 H30        -7.2293    4.7433   52.4425 H       1  ZINC000171059239    0.1300
     31 H31        -5.0483    4.4724   51.6487 H       1  ZINC000171059239    0.0800
     32 H32        -4.3365    3.2294   52.7055 H       1  ZINC000171059239    0.0800
     33 H33        -4.2053    1.6575   50.8252 H       1  ZINC000171059239    0.0700
     34 H34        -5.0174    2.8282   49.7582 H       1  ZINC000171059239    0.0700
     35 H35        -2.7936    4.1532   50.7586 H       1  ZINC000171059239    0.4000
     36 H36        -0.7819    4.1543   49.5744 H       1  ZINC000171059239    0.4100
     37 H37         0.5895    2.3005   50.7205 H       1  ZINC000171059239    0.1200
     38 H38         2.5514    1.0219   51.3927 H       1  ZINC000171059239    0.1200
     39 H39         4.0271    0.0034   49.7119 H       1  ZINC000171059239    0.1200
     40 H40         3.5638    0.2458   47.3328 H       1  ZINC000171059239    0.1300
     41 H41         2.1287    1.1440   45.5270 H       1  ZINC000171059239    0.1300
     42 H42         0.1712    2.4166   44.8425 H       1  ZINC000171059239    0.1300
     43 H43        -1.3167    3.4380   46.5092 H       1  ZINC000171059239    0.1400
     44 H44        -5.7193    0.8100   51.7908 H       1  ZINC000171059239    0.1400
@<TRIPOS>BOND
     1     1     2   am
     2     1    26    1
     3     1    27    1
     4     2     3    2
     5     2     4    1
     6     4    25   ar
     7     4     5   ar
     8     5     6   ar
     9     5    28    1
    10     6     7   ar
    11     6    29    1
    12     7     8   ar
    13     7    30    1
    14     8     9    1
    15     8    25   ar
    16     9    10    1
    17     9    31    1
    18     9    32    1
    19    10    11    1
    20    10    33    1
    21    10    34    1
    22    11    12   am
    23    11    35    1
    24    12    13    2
    25    12    14   am
    26    14    15    1
    27    14    36    1
    28    15    24   ar
    29    15    16   ar
    30    16    21   ar
    31    16    17   ar
    32    17    18   ar
    33    17    37    1
    34    18    19   ar
    35    18    38    1
    36    19    20   ar
    37    19    39    1
    38    20    21   ar
    39    20    40    1
    40    21    22   ar
    41    22    23   ar
    42    22    41    1
    43    23    24   ar
    44    23    42    1
    45    24    43    1
    46    25    44    1
@<TRIPOS>SUBSTRUCTURE
     1 ZINC000171059239        1 TEMP              0 ****  ****    0 ROOT


##########                                Name:    ZINC000479580180
##########                DOCK_Rotatable_Bonds:                   5
##########                         Heavy_Atoms:                  30
##########                    Molecular_Weight:             404.444
##########                DOCK_Rotatable_Bonds:                   5
##########                       Formal_Charge:           0.0299995
##########                     HBond_Acceptors:                   7
##########                        HBond_Donors:                   1
##########                         Heavy_Atoms:                  30
##########                          Grid_Score:          -28.668852
##########                     Grid_vdw_energy:          -27.205408
##########                      Grid_es_energy:           -1.463443
##########           Internal_energy_repulsive:           21.775276

@<TRIPOS>MOLECULE
ZINC000479580180
 51 55 1 0 0
SMALL
USER_CHARGES


@<TRIPOS>ATOM
      1 O1         -7.3941    3.9101   50.3988 O.2     1  ZINC000479580180   -0.5200
      2 C2         -6.9934    2.8343   50.7900 C.2     1  ZINC000479580180    0.5200
      3 C3         -5.8956    2.1221   50.0426 C.3     1  ZINC000479580180   -0.0700
      4 C4         -4.5715    2.4064   50.7037 C.2     1  ZINC000479580180   -0.1600
      5 C5         -4.3619    2.6878   51.9967 C.2     1  ZINC000479580180    0.0300
      6 O6         -3.0506    2.8838   52.2218 O.3     1  ZINC000479580180   -0.1900
      7 C7         -2.3409    2.7395   51.0848 C.ar    1  ZINC000479580180    0.0800
      8 C8         -0.9884    2.8357   50.7837 C.ar    1  ZINC000479580180   -0.1400
      9 C9         -0.5572    2.6277   49.4885 C.ar    1  ZINC000479580180    0.1300
     10 F10         0.7590    2.7214   49.1983 F       1  ZINC000479580180   -0.1300
     11 C11        -1.4636    2.3229   48.4811 C.ar    1  ZINC000479580180   -0.1600
     12 C12        -2.7991    2.2244   48.7586 C.ar    1  ZINC000479580180   -0.0400
     13 C13        -3.2512    2.4244   50.0616 C.ar    1  ZINC000479580180   -0.1200
     14 N14        -7.5259    2.2783   51.8962 N.am    1  ZINC000479580180   -0.6200
     15 C15        -8.6008    2.9577   52.6323 C.3     1  ZINC000479580180    0.1100
     16 C16        -9.7791    1.9912   52.7876 C.3     1  ZINC000479580180   -0.1300
     17 C17        -9.2897    0.6972   53.4420 C.3     1  ZINC000479580180   -0.0100
     18 C18       -10.4529   -0.2428   53.6274 C.2     1  ZINC000479580180    0.3000
     19 N19       -10.6037   -1.0891   54.6116 N.2     1  ZINC000479580180   -0.5300
     20 C20       -11.7514   -1.7630   54.4582 C.2     1  ZINC000479580180    0.2700
     21 C21       -12.2692   -2.8096   55.3743 C.ar    1  ZINC000479580180   -0.0200
     22 C22       -13.4622   -3.4671   55.0814 C.ar    1  ZINC000479580180   -0.0800
     23 C23       -13.9388   -4.4399   55.9366 C.ar    1  ZINC000479580180   -0.1300
     24 C24       -13.2348   -4.7622   57.0828 C.ar    1  ZINC000479580180   -0.1000
     25 C25       -12.0500   -4.1125   57.3783 C.ar    1  ZINC000479580180   -0.1200
     26 C26       -11.5611   -3.1422   56.5272 C.ar    1  ZINC000479580180   -0.0800
     27 N27       -12.3435   -1.3431   53.3618 N.2     1  ZINC000479580180   -0.3000
     28 N28       -11.5167   -0.3505   52.8111 N.pl3   1  ZINC000479580180   -0.4800
     29 C29        -8.2382    0.0371   52.5470 C.3     1  ZINC000479580180   -0.1400
     30 C30        -7.0466    0.9786   52.3856 C.3     1  ZINC000479580180    0.1200
     31 H31        -6.0847    1.0487   50.0549 H       1  ZINC000479580180    0.1100
     32 H32        -5.8699    2.4747   49.0115 H       1  ZINC000479580180    0.1100
     33 H33        -5.1342    2.7484   52.7492 H       1  ZINC000479580180    0.2100
     34 H34        -0.2762    3.0726   51.5604 H       1  ZINC000479580180    0.1500
     35 H35        -1.1117    2.1628   47.4726 H       1  ZINC000479580180    0.1400
     36 H36        -3.5002    1.9878   47.9719 H       1  ZINC000479580180    0.1300
     37 H37        -8.2388    3.2538   53.6169 H       1  ZINC000479580180    0.0800
     38 H38        -8.9221    3.8397   52.0784 H       1  ZINC000479580180    0.0900
     39 H39       -10.5448    2.4487   53.4142 H       1  ZINC000479580180    0.0900
     40 H40       -10.1976    1.7670   51.8063 H       1  ZINC000479580180    0.0700
     41 H41        -8.8488    0.9253   54.4124 H       1  ZINC000479580180    0.1200
     42 H42       -14.0130   -3.2157   54.1871 H       1  ZINC000479580180    0.1400
     43 H43       -14.8634   -4.9503   55.7106 H       1  ZINC000479580180    0.1300
     44 H44       -13.6118   -5.5236   57.7496 H       1  ZINC000479580180    0.1300
     45 H45       -11.5044   -4.3678   58.2747 H       1  ZINC000479580180    0.1300
     46 H46       -10.6357   -2.6357   56.7588 H       1  ZINC000479580180    0.1300
     47 H47       -11.6780    0.1542   51.9986 H       1  ZINC000479580180    0.4400
     48 H48        -7.9072   -0.8962   53.0024 H       1  ZINC000479580180    0.0900
     49 H49        -8.6711   -0.1688   51.5681 H       1  ZINC000479580180    0.0700
     50 H50        -6.3407    0.5552   51.6709 H       1  ZINC000479580180    0.1000
     51 H51        -6.5561    1.1157   53.3493 H       1  ZINC000479580180    0.0800
@<TRIPOS>BOND
     1     1     2    2
     2     2     3    1
     3     2    14   am
     4     3     4    1
     5     3    31    1
     6     3    32    1
     7     4    13    1
     8     4     5    2
     9     5     6    1
    10     5    33    1
    11     6     7    1
    12     7    13   ar
    13     7     8   ar
    14     8     9   ar
    15     8    34    1
    16     9    10    1
    17     9    11   ar
    18    11    12   ar
    19    11    35    1
    20    12    13   ar
    21    12    36    1
    22    14    30    1
    23    14    15    1
    24    15    16    1
    25    15    37    1
    26    15    38    1
    27    16    17    1
    28    16    39    1
    29    16    40    1
    30    17    18    1
    31    17    29    1
    32    17    41    1
    33    18    28    1
    34    18    19    2
    35    19    20    1
    36    20    21    1
    37    20    27    2
    38    21    26   ar
    39    21    22   ar
    40    22    23   ar
    41    22    42    1
    42    23    24   ar
    43    23    43    1
    44    24    25   ar
    45    24    44    1
    46    25    26   ar
    47    25    45    1
    48    26    46    1
    49    27    28    1
    50    28    47    1
    51    29    30    1
    52    29    48    1
    53    29    49    1
    54    30    50    1
    55    30    51    1
@<TRIPOS>SUBSTRUCTURE
     1 ZINC000479580180        1 TEMP              0 ****  ****    0 ROOT


##########                                Name:    ZINC001120957943
##########                DOCK_Rotatable_Bonds:                   4
##########                         Heavy_Atoms:                  27
##########                    Molecular_Weight:             396.802
##########                DOCK_Rotatable_Bonds:                   4
##########                       Formal_Charge:          -0.0199996
##########                     HBond_Acceptors:                  10
##########                        HBond_Donors:                   0
##########                         Heavy_Atoms:                  27
##########                          Grid_Score:          -28.663403
##########                     Grid_vdw_energy:          -29.036228
##########                      Grid_es_energy:            0.372826
##########           Internal_energy_repulsive:            5.575671

@<TRIPOS>MOLECULE
ZINC001120957943
 43 46 1 0 0
SMALL
USER_CHARGES


@<TRIPOS>ATOM
      1 C1         -0.0945    4.7512   47.2217 C.3     1  ZINC001120957943    0.0900
      2 N2         -0.1480    4.0389   48.5008 N.pl3   1  ZINC001120957943   -0.6000
      3 C3          1.0731    3.8564   49.2893 C.3     1  ZINC001120957943    0.2200
      4 C4          1.3188    2.3848   49.5014 C.2     1  ZINC001120957943    0.1600
      5 N5          0.9264    1.6705   50.5250 N.2     1  ZINC001120957943   -0.2500
      6 N6          1.3108    0.4491   50.3766 N.2     1  ZINC001120957943   -0.2800
      7 C7          1.9616    0.3327   49.2592 C.2     1  ZINC001120957943    0.1700
      8 C8          2.5991   -0.8992   48.6675 C.3     1  ZINC001120957943   -0.0300
      9 C9          3.5697   -0.4523   47.5660 C.3     1  ZINC001120957943   -0.1300
     10 C10         2.8626    0.5424   46.6410 C.3     1  ZINC001120957943   -0.1500
     11 H11         1.9078    0.1249   46.3210 H       1  ZINC001120957943    0.1300
     12 C12         3.7383    0.8097   45.4153 C.3     1  ZINC001120957943    0.4600
     13 F13         5.0570    1.0353   45.8245 F       1  ZINC001120957943   -0.1700
     14 F14         3.6979   -0.2988   44.5626 F       1  ZINC001120957943   -0.1800
     15 F15         3.2610    1.9368   44.7379 F       1  ZINC001120957943   -0.1800
     16 C16         2.6192    1.8575   47.3906 C.3     1  ZINC001120957943    0.1100
     17 N17         1.9789    1.5553   48.6704 N.pl3   1  ZINC001120957943   -0.4700
     18 C18        -1.3550    3.5372   48.9652 C.ar    1  ZINC001120957943    0.3700
     19 C19        -2.1230    2.6946   48.1427 C.ar    1  ZINC001120957943    0.0500
     20 N20        -3.2661    2.2106   48.5648 N.ar    1  ZINC001120957943   -0.3900
     21 C21        -3.7092    2.5196   49.7900 C.ar    1  ZINC001120957943    0.0400
     22 C22        -4.9305    2.0136   50.2660 C.ar    1  ZINC001120957943   -0.0600
     23 C23        -5.3570    2.3440   51.5168 C.ar    1  ZINC001120957943   -0.0400
     24 Cl24       -6.8667    1.7159   52.0999 Cl      1  ZINC001120957943   -0.0600
     25 C25        -4.5977    3.1793   52.3357 C.ar    1  ZINC001120957943   -0.0800
     26 C26        -3.4102    3.6874   51.9071 C.ar    1  ZINC001120957943   -0.0800
     27 C27        -2.9382    3.3686   50.6222 C.ar    1  ZINC001120957943    0.1400
     28 N28        -1.7709    3.8502   50.1777 N.ar    1  ZINC001120957943   -0.4700
     29 H29         0.1003    4.0408   46.4181 H       1  ZINC001120957943    0.0700
     30 H30        -1.0472    5.2494   47.0431 H       1  ZINC001120957943    0.0800
     31 H31         0.7035    5.4931   47.2521 H       1  ZINC001120957943    0.0700
     32 H32         1.9181    4.2928   48.7567 H       1  ZINC001120957943    0.1200
     33 H33         0.9589    4.3486   50.2551 H       1  ZINC001120957943    0.1000
     34 H34         3.1443   -1.4393   49.4415 H       1  ZINC001120957943    0.1100
     35 H35         1.8298   -1.5429   48.2411 H       1  ZINC001120957943    0.1000
     36 H36         4.4384    0.0259   48.0186 H       1  ZINC001120957943    0.0900
     37 H37         3.8906   -1.3201   46.9897 H       1  ZINC001120957943    0.1000
     38 H38         3.5702    2.3612   47.5634 H       1  ZINC001120957943    0.1000
     39 H39         1.9652    2.4992   46.8001 H       1  ZINC001120957943    0.1100
     40 H40        -1.7683    2.4439   47.1539 H       1  ZINC001120957943    0.1700
     41 H41        -5.5286    1.3656   49.6427 H       1  ZINC001120957943    0.1500
     42 H42        -4.9573    3.4268   53.3236 H       1  ZINC001120957943    0.1400
     43 H43        -2.8326    4.3334   52.5518 H       1  ZINC001120957943    0.1500
@<TRIPOS>BOND
     1     1     2    1
     2     1    29    1
     3     1    30    1
     4     1    31    1
     5     2     3    1
     6     2    18    1
     7     3     4    1
     8     3    32    1
     9     3    33    1
    10     4    17    1
    11     4     5    2
    12     5     6    1
    13     6     7    2
    14     7    17    1
    15     7     8    1
    16     8     9    1
    17     8    34    1
    18     8    35    1
    19     9    10    1
    20     9    36    1
    21     9    37    1
    22    10    11    1
    23    10    12    1
    24    10    16    1
    25    12    13    1
    26    12    14    1
    27    12    15    1
    28    16    17    1
    29    16    38    1
    30    16    39    1
    31    18    28   ar
    32    18    19   ar
    33    19    20   ar
    34    19    40    1
    35    20    21   ar
    36    21    27   ar
    37    21    22   ar
    38    22    23   ar
    39    22    41    1
    40    23    24    1
    41    23    25   ar
    42    25    26   ar
    43    25    42    1
    44    26    27   ar
    45    26    43    1
    46    27    28   ar
@<TRIPOS>SUBSTRUCTURE
     1 ZINC001120957943        1 TEMP              0 ****  ****    0 ROOT


##########                                Name:    ZINC000623581528
##########                DOCK_Rotatable_Bonds:                   5
##########                         Heavy_Atoms:                  26
##########                    Molecular_Weight:             355.369
##########                DOCK_Rotatable_Bonds:                   5
##########                       Formal_Charge:        -4.47035e-07
##########                     HBond_Acceptors:                   7
##########                        HBond_Donors:                   2
##########                         Heavy_Atoms:                  26
##########                          Grid_Score:          -28.662830
##########                     Grid_vdw_energy:          -27.132807
##########                      Grid_es_energy:           -1.530023
##########           Internal_energy_repulsive:            4.228951

@<TRIPOS>MOLECULE
ZINC000623581528
 44 47 1 0 0
SMALL
USER_CHARGES


@<TRIPOS>ATOM
      1 C1         -1.1486    4.7001   48.3595 C.3     1  ZINC000623581528    0.1000
      2 N2         -2.0376    3.5998   48.7408 N.am    1  ZINC000623581528   -0.5500
      3 C3         -2.1753    2.4255   48.0939 C.2     1  ZINC000623581528    0.6300
      4 O4         -1.5744    2.1040   47.0869 O.2     1  ZINC000623581528   -0.4800
      5 O5         -3.0786    1.6660   48.7333 O.3     1  ZINC000623581528   -0.2300
      6 C6         -3.5440    2.3410   49.8127 C.ar    1  ZINC000623581528    0.0400
      7 C7         -4.4695    2.0289   50.7958 C.ar    1  ZINC000623581528   -0.0800
      8 C8         -4.7459    2.9407   51.7964 C.ar    1  ZINC000623581528   -0.0900
      9 C9         -4.1031    4.1657   51.8219 C.ar    1  ZINC000623581528   -0.0900
     10 C10        -4.4116    5.1535   52.9175 C.3     1  ZINC000623581528    0.1800
     11 N11        -4.0058    4.5930   54.2088 N.am    1  ZINC000623581528   -0.7400
     12 C12        -2.7156    4.6533   54.5940 C.2     1  ZINC000623581528    0.7100
     13 O13        -1.8883    5.1716   53.8693 O.2     1  ZINC000623581528   -0.5800
     14 N14        -2.3426    4.1391   55.7827 N.am    1  ZINC000623581528   -0.7300
     15 C15        -0.9405    4.2063   56.2023 C.3     1  ZINC000623581528    0.2000
     16 H16        -0.4506    5.0662   55.7457 H       1  ZINC000623581528    0.1000
     17 C17        -0.2041    2.9048   55.8197 C.3     1  ZINC000623581528   -0.1300
     18 C18        -0.3587    2.0495   57.0952 C.3     1  ZINC000623581528   -0.0800
     19 C19        -0.5126    3.0460   58.2242 C.ar    1  ZINC000623581528   -0.1000
     20 C20        -0.3711    2.8806   59.5918 C.ar    1  ZINC000623581528   -0.0800
     21 C21        -0.5624    3.9494   60.4453 C.ar    1  ZINC000623581528   -0.1400
     22 C22        -0.8972    5.1909   59.9325 C.ar    1  ZINC000623581528    0.0900
     23 F23        -1.0845    6.2387   60.7645 F       1  ZINC000623581528   -0.1400
     24 C24        -1.0392    5.3570   58.5661 C.ar    1  ZINC000623581528   -0.1200
     25 C25        -0.8471    4.2882   57.7108 C.ar    1  ZINC000623581528   -0.0900
     26 C26        -3.1788    4.4858   50.8460 C.ar    1  ZINC000623581528   -0.0800
     27 C27        -2.8916    3.5738   49.8430 C.ar    1  ZINC000623581528    0.0700
     28 H28        -0.1779    4.5648   48.8365 H       1  ZINC000623581528    0.0800
     29 H29        -1.0234    4.7074   47.2767 H       1  ZINC000623581528    0.0900
     30 H30        -1.5830    5.6465   48.6815 H       1  ZINC000623581528    0.0900
     31 H31        -4.9742    1.0744   50.7796 H       1  ZINC000623581528    0.1500
     32 H32        -5.4674    2.6963   52.5619 H       1  ZINC000623581528    0.1500
     33 H33        -3.8663    6.0796   52.7359 H       1  ZINC000623581528    0.0800
     34 H34        -5.4821    5.3587   52.9308 H       1  ZINC000623581528    0.0800
     35 H35        -4.6656    4.1785   54.7865 H       1  ZINC000623581528    0.4000
     36 H36        -3.0024    3.7245   56.3604 H       1  ZINC000623581528    0.4000
     37 H37        -0.6860    2.4227   54.9692 H       1  ZINC000623581528    0.0900
     38 H38         0.8472    3.1018   55.6104 H       1  ZINC000623581528    0.0900
     39 H39        -1.2455    1.4197   57.0231 H       1  ZINC000623581528    0.0800
     40 H40         0.5296    1.4370   57.2497 H       1  ZINC000623581528    0.0800
     41 H41        -0.1100    1.9123   59.9925 H       1  ZINC000623581528    0.1300
     42 H42        -0.4513    3.8168   61.5113 H       1  ZINC000623581528    0.1400
     43 H43        -1.3004    6.3254   58.1656 H       1  ZINC000623581528    0.1400
     44 H44        -2.6780    5.4425   50.8676 H       1  ZINC000623581528    0.1400
@<TRIPOS>BOND
     1     1     2    1
     2     1    28    1
     3     1    29    1
     4     1    30    1
     5     2    27    1
     6     2     3   am
     7     3     4    2
     8     3     5    1
     9     5     6    1
    10     6    27   ar
    11     6     7   ar
    12     7     8   ar
    13     7    31    1
    14     8     9   ar
    15     8    32    1
    16     9    10    1
    17     9    26   ar
    18    10    11    1
    19    10    33    1
    20    10    34    1
    21    11    12   am
    22    11    35    1
    23    12    13    2
    24    12    14   am
    25    14    15    1
    26    14    36    1
    27    15    16    1
    28    15    25    1
    29    15    17    1
    30    17    18    1
    31    17    37    1
    32    17    38    1
    33    18    19    1
    34    18    39    1
    35    18    40    1
    36    19    25   ar
    37    19    20   ar
    38    20    21   ar
    39    20    41    1
    40    21    22   ar
    41    21    42    1
    42    22    23    1
    43    22    24   ar
    44    24    25   ar
    45    24    43    1
    46    26    27   ar
    47    26    44    1
@<TRIPOS>SUBSTRUCTURE
     1 ZINC000623581528        1 TEMP              0 ****  ****    0 ROOT


##########                                Name:    ZINC000464867530
##########                DOCK_Rotatable_Bonds:                   8
##########                         Heavy_Atoms:                  30
##########                    Molecular_Weight:              422.49
##########                DOCK_Rotatable_Bonds:                   8
##########                       Formal_Charge:         -0.00999994
##########                     HBond_Acceptors:                   7
##########                        HBond_Donors:                   0
##########                         Heavy_Atoms:                  30
##########                          Grid_Score:          -28.657352
##########                     Grid_vdw_energy:          -27.889664
##########                      Grid_es_energy:           -0.767689
##########           Internal_energy_repulsive:           34.311642

@<TRIPOS>MOLECULE
ZINC000464867530
 59 62 1 0 0
SMALL
USER_CHARGES


@<TRIPOS>ATOM
      1 C1         -5.9822    1.1141   50.6300 C.3     1  ZINC000464867530   -0.1500
      2 C2         -6.4183    1.8651   51.8896 C.3     1  ZINC000464867530   -0.1400
      3 C3         -7.5764    1.1175   52.5537 C.3     1  ZINC000464867530    0.0900
      4 N4         -8.2006    1.9795   53.5605 N.am    1  ZINC000464867530   -0.6100
      5 C5         -7.5572    3.2372   53.9484 C.3     1  ZINC000464867530    0.0700
      6 C6         -8.2455    4.4032   53.2359 C.3     1  ZINC000464867530    0.4300
      7 F7         -8.8014    3.9525   52.0338 F       1  ZINC000464867530   -0.1700
      8 F8         -9.2574    4.9175   54.0537 F       1  ZINC000464867530   -0.1800
      9 F9         -7.3071    5.4058   52.9688 F       1  ZINC000464867530   -0.1800
     10 C10        -9.3667    1.6155   54.1297 C.2     1  ZINC000464867530    0.5300
     11 O11        -9.8835    2.3293   54.9632 O.2     1  ZINC000464867530   -0.5100
     12 C12       -10.0286    0.3218   53.7307 C.3     1  ZINC000464867530   -0.1200
     13 H13        -9.2659   -0.4099   53.4639 H       1  ZINC000464867530    0.1000
     14 C14       -10.9445    0.5659   52.5292 C.3     1  ZINC000464867530   -0.1200
     15 C15       -11.5918   -0.7535   52.1027 C.3     1  ZINC000464867530   -0.1300
     16 C16       -12.4414   -1.2971   53.2557 C.3     1  ZINC000464867530    0.1000
     17 N17       -11.6003   -1.3979   54.4562 N.am    1  ZINC000464867530   -0.6100
     18 C18       -11.5092   -2.5586   55.1353 C.2     1  ZINC000464867530    0.5500
     19 O19       -12.1237   -3.5329   54.7559 O.2     1  ZINC000464867530   -0.5300
     20 C20       -10.6436   -2.6457   56.3658 C.3     1  ZINC000464867530   -0.1700
     21 H21        -9.6663   -2.1691   56.2881 H       1  ZINC000464867530    0.1300
     22 C22       -10.7454   -3.9165   57.2138 C.3     1  ZINC000464867530   -0.1300
     23 C23       -11.3402   -2.6067   57.7208 C.3     1  ZINC000464867530   -0.0600
     24 C24       -12.8617   -2.4112   57.8275 C.3     1  ZINC000464867530   -0.0900
     25 C25       -12.9666   -1.0839   58.6107 C.3     1  ZINC000464867530   -0.0800
     26 C26       -11.6840   -0.9914   59.4102 C.ar    1  ZINC000464867530   -0.0900
     27 C27       -11.3623   -0.2025   60.5012 C.ar    1  ZINC000464867530   -0.1100
     28 C28       -10.1092   -0.2871   61.0763 C.ar    1  ZINC000464867530   -0.1100
     29 C29        -9.1721   -1.1626   60.5611 C.ar    1  ZINC000464867530   -0.1200
     30 C30        -9.4905   -1.9513   59.4727 C.ar    1  ZINC000464867530   -0.1000
     31 C31       -10.7458   -1.8689   58.8943 C.ar    1  ZINC000464867530   -0.0700
     32 C32       -10.8598   -0.2100   54.9025 C.3     1  ZINC000464867530    0.1300
     33 H33        -5.6585    0.1089   50.9000 H       1  ZINC000464867530    0.0600
     34 H34        -6.8201    1.0518   49.9357 H       1  ZINC000464867530    0.0600
     35 H35        -5.1571    1.6467   50.1568 H       1  ZINC000464867530    0.0600
     36 H36        -5.5804    1.9273   52.5839 H       1  ZINC000464867530    0.0700
     37 H37        -6.7419    2.8703   51.6196 H       1  ZINC000464867530    0.0700
     38 H38        -8.3146    0.8470   51.7988 H       1  ZINC000464867530    0.0900
     39 H39        -7.1987    0.2141   53.0326 H       1  ZINC000464867530    0.0900
     40 H40        -7.6405    3.3704   55.0270 H       1  ZINC000464867530    0.1300
     41 H41        -6.5047    3.2092   53.6660 H       1  ZINC000464867530    0.1200
     42 H42       -11.7214    1.2795   52.8039 H       1  ZINC000464867530    0.0800
     43 H43       -10.3591    0.9674   51.7020 H       1  ZINC000464867530    0.0800
     44 H44       -12.2258   -0.5831   51.2325 H       1  ZINC000464867530    0.0900
     45 H45       -10.8149   -1.4755   51.8515 H       1  ZINC000464867530    0.0700
     46 H46       -13.2730   -0.6192   53.4481 H       1  ZINC000464867530    0.0700
     47 H47       -12.8244   -2.2834   52.9940 H       1  ZINC000464867530    0.0900
     48 H48       -11.4385   -4.6894   56.8815 H       1  ZINC000464867530    0.1100
     49 H49        -9.8354   -4.2755   57.6945 H       1  ZINC000464867530    0.1100
     50 H50       -13.3108   -2.3150   56.8390 H       1  ZINC000464867530    0.0700
     51 H51       -13.3198   -3.2282   58.3851 H       1  ZINC000464867530    0.0800
     52 H52       -13.0438   -0.2432   57.9214 H       1  ZINC000464867530    0.0800
     53 H53       -13.8276   -1.1062   59.2788 H       1  ZINC000464867530    0.0800
     54 H54       -12.0939    0.4822   60.9041 H       1  ZINC000464867530    0.1200
     55 H55        -9.8620    0.3303   61.9273 H       1  ZINC000464867530    0.1300
     56 H56        -8.1916   -1.2300   61.0090 H       1  ZINC000464867530    0.1300
     57 H57        -8.7570   -2.6346   59.0709 H       1  ZINC000464867530    0.1200
     58 H58       -10.1998   -0.4792   55.7271 H       1  ZINC000464867530    0.1000
     59 H59       -11.5620    0.5570   55.2292 H       1  ZINC000464867530    0.0800
@<TRIPOS>BOND
     1     1     2    1
     2     1    33    1
     3     1    34    1
     4     1    35    1
     5     2     3    1
     6     2    36    1
     7     2    37    1
     8     3     4    1
     9     3    38    1
    10     3    39    1
    11     4     5    1
    12     4    10   am
    13     5     6    1
    14     5    40    1
    15     5    41    1
    16     6     7    1
    17     6     8    1
    18     6     9    1
    19    10    11    2
    20    10    12    1
    21    12    13    1
    22    12    32    1
    23    12    14    1
    24    14    15    1
    25    14    42    1
    26    14    43    1
    27    15    16    1
    28    15    44    1
    29    15    45    1
    30    16    17    1
    31    16    46    1
    32    16    47    1
    33    17    18   am
    34    17    32    1
    35    18    19    2
    36    18    20    1
    37    20    21    1
    38    20    23    1
    39    20    22    1
    40    22    23    1
    41    22    48    1
    42    22    49    1
    43    23    31    1
    44    23    24    1
    45    24    25    1
    46    24    50    1
    47    24    51    1
    48    25    26    1
    49    25    52    1
    50    25    53    1
    51    26    31   ar
    52    26    27   ar
    53    27    28   ar
    54    27    54    1
    55    28    29   ar
    56    28    55    1
    57    29    30   ar
    58    29    56    1
    59    30    31   ar
    60    30    57    1
    61    32    58    1
    62    32    59    1
@<TRIPOS>SUBSTRUCTURE
     1 ZINC000464867530        1 TEMP              0 ****  ****    0 ROOT


##########                                Name:    ZINC000800038938
##########                DOCK_Rotatable_Bonds:                   6
##########                         Heavy_Atoms:                  25
##########                    Molecular_Weight:             386.274
##########                DOCK_Rotatable_Bonds:                   6
##########                       Formal_Charge:           0.0200003
##########                     HBond_Acceptors:                   7
##########                        HBond_Donors:                   0
##########                         Heavy_Atoms:                  25
##########                          Grid_Score:          -28.654444
##########                     Grid_vdw_energy:          -28.413271
##########                      Grid_es_energy:           -0.241173
##########           Internal_energy_repulsive:           12.947897

@<TRIPOS>MOLECULE
ZINC000800038938
 46 48 1 0 0
SMALL
USER_CHARGES


@<TRIPOS>ATOM
      1 C1         -6.8775    3.7523   54.8416 C.3     1  ZINC000800038938    0.0300
      2 O2         -6.9910    2.5390   54.0952 O.3     1  ZINC000800038938   -0.3800
      3 C3         -6.9026    2.7168   52.6800 C.3     1  ZINC000800038938    0.0900
      4 H4         -7.6848    3.3954   52.3397 H       1  ZINC000800038938    0.0700
      5 C5         -7.0372    1.3554   51.9671 C.3     1  ZINC000800038938   -0.1400
      6 C6         -6.0554    1.4533   50.7731 C.3     1  ZINC000800038938   -0.1400
      7 C7         -4.8607    2.2332   51.3760 C.3     1  ZINC000800038938    0.0900
      8 H8         -4.2181    1.5642   51.9484 H       1  ZINC000800038938    0.0900
      9 O9         -4.1018    2.8907   50.3272 O.3     1  ZINC000800038938   -0.3500
     10 C10        -2.9688    3.5111   50.6924 C.2     1  ZINC000800038938    0.4500
     11 O11        -2.5526    3.3940   51.8206 O.2     1  ZINC000800038938   -0.4800
     12 C12        -2.2161    4.3538   49.6952 C.3     1  ZINC000800038938    0.1500
     13 H13        -2.8527    4.5696   48.8371 H       1  ZINC000800038938    0.1200
     14 C14        -1.7635    5.6721   50.3577 C.3     1  ZINC000800038938   -0.1200
     15 C15        -0.3536    5.8996   49.7510 C.3     1  ZINC000800038938   -0.1300
     16 C16         0.1741    4.4476   49.6373 C.3     1  ZINC000800038938    0.0900
     17 N17        -1.0059    3.6450   49.2543 N.am    1  ZINC000800038938   -0.6000
     18 C18        -0.9753    2.4608   48.6115 C.2     1  ZINC000800038938    0.5800
     19 O19        -2.0132    1.8865   48.3459 O.2     1  ZINC000800038938   -0.4900
     20 C20         0.3200    1.8606   48.2297 C.ar    1  ZINC000800038938   -0.1100
     21 C21         1.0929    1.1960   49.1831 C.ar    1  ZINC000800038938   -0.0700
     22 C22         2.3020    0.6376   48.8196 C.ar    1  ZINC000800038938   -0.0400
     23 Cl23        3.2646   -0.1899   50.0038 Cl      1  ZINC000800038938   -0.0500
     24 C24         2.7487    0.7357   47.5124 C.ar    1  ZINC000800038938   -0.0700
     25 C25         1.9882    1.3931   46.5626 C.ar    1  ZINC000800038938   -0.1000
     26 C26         0.7738    1.9510   46.9111 C.ar    1  ZINC000800038938    0.0100
     27 Cl27       -0.1794    2.7759   45.7175 Cl      1  ZINC000800038938   -0.0300
     28 C28        -5.5193    3.2761   52.3043 C.3     1  ZINC000800038938   -0.1200
     29 H29        -6.9545    3.5324   55.9064 H       1  ZINC000800038938    0.0900
     30 H30        -5.9133    4.2170   54.6354 H       1  ZINC000800038938    0.0400
     31 H31        -7.6782    4.4331   54.5523 H       1  ZINC000800038938    0.0400
     32 H32        -6.7462    0.5446   52.6349 H       1  ZINC000800038938    0.0800
     33 H33        -8.0572    1.2103   51.6112 H       1  ZINC000800038938    0.0800
     34 H34        -5.7437    0.4609   50.4470 H       1  ZINC000800038938    0.0800
     35 H35        -6.5032    2.0089   49.9493 H       1  ZINC000800038938    0.0800
     36 H36        -2.4346    6.4883   50.0904 H       1  ZINC000800038938    0.1000
     37 H37        -1.7039    5.5591   51.4401 H       1  ZINC000800038938    0.0900
     38 H38        -0.4216    6.3686   48.7694 H       1  ZINC000800038938    0.0900
     39 H39         0.2698    6.4903   50.4222 H       1  ZINC000800038938    0.1000
     40 H40         0.9420    4.3823   48.8666 H       1  ZINC000800038938    0.0900
     41 H41         0.5682    4.1109   50.5963 H       1  ZINC000800038938    0.0800
     42 H42         0.7460    1.1190   50.2029 H       1  ZINC000800038938    0.1500
     43 H43         3.6953    0.2970   47.2334 H       1  ZINC000800038938    0.1500
     44 H44         2.3426    1.4663   45.5449 H       1  ZINC000800038938    0.1500
     45 H45        -5.6290    4.2257   51.7806 H       1  ZINC000800038938    0.0900
     46 H46        -4.9152    3.4116   53.2015 H       1  ZINC000800038938    0.0900
@<TRIPOS>BOND
     1     1     2    1
     2     1    29    1
     3     1    30    1
     4     1    31    1
     5     2     3    1
     6     3     4    1
     7     3    28    1
     8     3     5    1
     9     5     6    1
    10     5    32    1
    11     5    33    1
    12     6     7    1
    13     6    34    1
    14     6    35    1
    15     7     8    1
    16     7     9    1
    17     7    28    1
    18     9    10    1
    19    10    11    2
    20    10    12    1
    21    12    13    1
    22    12    17    1
    23    12    14    1
    24    14    15    1
    25    14    36    1
    26    14    37    1
    27    15    16    1
    28    15    38    1
    29    15    39    1
    30    16    17    1
    31    16    40    1
    32    16    41    1
    33    17    18   am
    34    18    19    2
    35    18    20    1
    36    20    26   ar
    37    20    21   ar
    38    21    22   ar
    39    21    42    1
    40    22    23    1
    41    22    24   ar
    42    24    25   ar
    43    24    43    1
    44    25    26   ar
    45    25    44    1
    46    26    27    1
    47    28    45    1
    48    28    46    1
@<TRIPOS>SUBSTRUCTURE
     1 ZINC000800038938        1 TEMP              0 ****  ****    0 ROOT


##########                                Name:    ZINC000867639366
##########                DOCK_Rotatable_Bonds:                   6
##########                         Heavy_Atoms:                  25
##########                    Molecular_Weight:             388.509
##########                DOCK_Rotatable_Bonds:                   6
##########                       Formal_Charge:          0.00999961
##########                     HBond_Acceptors:                   9
##########                        HBond_Donors:                   1
##########                         Heavy_Atoms:                  25
##########                          Grid_Score:          -28.646061
##########                     Grid_vdw_energy:          -26.007322
##########                      Grid_es_energy:           -2.638738
##########           Internal_energy_repulsive:           40.435448

@<TRIPOS>MOLECULE
ZINC000867639366
 49 51 1 0 0
SMALL
USER_CHARGES


@<TRIPOS>ATOM
      1 C1          3.5410    2.1658   44.3315 C.3     1  ZINC000867639366    0.0300
      2 O2          3.1182    3.3926   44.9299 O.3     1  ZINC000867639366   -0.3800
      3 C3          1.8325    3.8391   44.4942 C.3     1  ZINC000867639366    0.0800
      4 H4          1.6905    3.5723   43.4469 H       1  ZINC000867639366    0.0800
      5 C5          1.7391    5.3585   44.6514 C.3     1  ZINC000867639366   -0.1400
      6 C6          1.9719    5.7368   46.1159 C.3     1  ZINC000867639366   -0.1200
      7 C7          0.8861    5.0933   46.9841 C.3     1  ZINC000867639366    0.1500
      8 H8         -0.0848    5.5180   46.7295 H       1  ZINC000867639366    0.0800
      9 C9          1.1887    5.3543   48.4611 C.3     1  ZINC000867639366   -0.1900
     10 N10         0.8729    3.6463   46.7294 N.am    1  ZINC000867639366   -0.9800
     11 S11         0.9989    2.5683   47.9801 S.o2    1  ZINC000867639366    2.6900
     12 O12         0.8015    1.2778   47.4189 O.2     1  ZINC000867639366   -0.9500
     13 O13         2.1659    2.9300   48.7057 O.2     1  ZINC000867639366   -0.9400
     14 C14        -0.3657    2.8567   49.0568 C.ar    1  ZINC000867639366   -0.6300
     15 C15        -0.1908    2.7929   50.4266 C.ar    1  ZINC000867639366   -0.0500
     16 C16        -1.2615    3.0192   51.2713 C.ar    1  ZINC000867639366   -0.0400
     17 C17        -2.5068    3.3097   50.7464 C.ar    1  ZINC000867639366   -0.6300
     18 S18        -3.8715    3.5975   51.8230 S.o2    1  ZINC000867639366    2.7000
     19 O19        -3.3207    3.9829   53.0749 O.2     1  ZINC000867639366   -0.9400
     20 O20        -4.7917    4.4019   51.0981 O.2     1  ZINC000867639366   -0.9500
     21 N21        -4.6176    2.1397   52.0692 N.am    1  ZINC000867639366   -1.0800
     22 C22        -5.1684    1.3977   50.9326 C.3     1  ZINC000867639366    0.0800
     23 C23        -6.4762    0.6348   51.1538 C.3     1  ZINC000867639366   -0.1800
     24 C24        -6.4695    1.9145   50.3151 C.3     1  ZINC000867639366   -0.1900
     25 C25        -2.6813    3.3748   49.3766 C.ar    1  ZINC000867639366   -0.0400
     26 C26        -1.6098    3.1524   48.5319 C.ar    1  ZINC000867639366   -0.0400
     27 C27         0.7452    3.1734   45.3435 C.3     1  ZINC000867639366    0.1200
     28 H28         2.8277    1.3783   44.5746 H       1  ZINC000867639366    0.0400
     29 H29         3.5926    2.2880   43.2496 H       1  ZINC000867639366    0.0400
     30 H30         4.5252    1.8953   44.7140 H       1  ZINC000867639366    0.0900
     31 H31         2.4960    5.8352   44.0285 H       1  ZINC000867639366    0.0700
     32 H32         0.7497    5.6954   44.3421 H       1  ZINC000867639366    0.0700
     33 H33         2.9512    5.3784   46.4330 H       1  ZINC000867639366    0.0800
     34 H34         1.9284    6.8207   46.2231 H       1  ZINC000867639366    0.0800
     35 H35         1.0712    6.4169   48.6737 H       1  ZINC000867639366    0.0700
     36 H36         0.4985    4.7814   49.0801 H       1  ZINC000867639366    0.0600
     37 H37         2.2121    5.0507   48.6815 H       1  ZINC000867639366    0.1000
     38 H38         0.7821    2.5658   50.8368 H       1  ZINC000867639366    0.1600
     39 H39        -1.1250    2.9686   52.3415 H       1  ZINC000867639366    0.1500
     40 H40        -4.6899    1.7772   52.9660 H       1  ZINC000867639366    0.4200
     41 H41        -4.4340    0.9537   50.2605 H       1  ZINC000867639366    0.1400
     42 H42        -6.6022   -0.3113   50.6275 H       1  ZINC000867639366    0.1100
     43 H43        -6.9266    0.6852   52.1451 H       1  ZINC000867639366    0.1000
     44 H44        -6.9155    2.8066   50.7546 H       1  ZINC000867639366    0.1000
     45 H45        -6.5910    1.8102   49.2370 H       1  ZINC000867639366    0.1000
     46 H46        -3.6541    3.6022   48.9664 H       1  ZINC000867639366    0.1500
     47 H47        -1.7462    3.2033   47.4618 H       1  ZINC000867639366    0.1500
     48 H48        -0.2373    3.4416   44.9550 H       1  ZINC000867639366    0.0900
     49 H49         0.8691    2.0910   45.3138 H       1  ZINC000867639366    0.1000
@<TRIPOS>BOND
     1     1     2    1
     2     1    28    1
     3     1    29    1
     4     1    30    1
     5     2     3    1
     6     3     4    1
     7     3    27    1
     8     3     5    1
     9     5     6    1
    10     5    31    1
    11     5    32    1
    12     6     7    1
    13     6    33    1
    14     6    34    1
    15     7     8    1
    16     7     9    1
    17     7    10    1
    18     9    35    1
    19     9    36    1
    20     9    37    1
    21    10    11   am
    22    10    27    1
    23    11    12    2
    24    11    13    2
    25    11    14    1
    26    14    26   ar
    27    14    15   ar
    28    15    16   ar
    29    15    38    1
    30    16    17   ar
    31    16    39    1
    32    17    18    1
    33    17    25   ar
    34    18    19    2
    35    18    20    2
    36    18    21   am
    37    21    22    1
    38    21    40    1
    39    22    24    1
    40    22    23    1
    41    22    41    1
    42    23    24    1
    43    23    42    1
    44    23    43    1
    45    24    44    1
    46    24    45    1
    47    25    26   ar
    48    25    46    1
    49    26    47    1
    50    27    48    1
    51    27    49    1
@<TRIPOS>SUBSTRUCTURE
     1 ZINC000867639366        1 TEMP              0 ****  ****    0 ROOT


##########                                Name:    ZINC000194290865
##########                DOCK_Rotatable_Bonds:                   7
##########                         Heavy_Atoms:                  28
##########                    Molecular_Weight:             387.479
##########                DOCK_Rotatable_Bonds:                   7
##########                       Formal_Charge:          -0.0400003
##########                     HBond_Acceptors:                   7
##########                        HBond_Donors:                   0
##########                         Heavy_Atoms:                  28
##########                          Grid_Score:          -28.624962
##########                     Grid_vdw_energy:          -29.360962
##########                      Grid_es_energy:            0.736001
##########           Internal_energy_repulsive:           27.269161

@<TRIPOS>MOLECULE
ZINC000194290865
 57 59 1 0 0
SMALL
USER_CHARGES


@<TRIPOS>ATOM
      1 C1         -9.0369    0.6649   65.1090 C.3     1  ZINC000194290865   -0.1500
      2 C2         -9.9456    1.2678   64.0360 C.3     1  ZINC000194290865    0.0600
      3 O3         -9.9818    0.3876   62.8818 O.3     1  ZINC000194290865   -0.3600
      4 C4        -10.4617    0.9013   61.7384 C.2     1  ZINC000194290865    0.4700
      5 O5        -10.7691    2.0685   61.6826 O.2     1  ZINC000194290865   -0.4900
      6 C6        -10.6172    0.0224   60.5241 C.3     1  ZINC000194290865   -0.0600
      7 C7         -9.2984   -0.0548   59.7526 C.3     1  ZINC000194290865   -0.0700
      8 C8         -8.8478    1.3564   59.3700 C.3     1  ZINC000194290865   -0.1700
      9 C9         -8.2311   -0.7103   60.6312 C.3     1  ZINC000194290865   -0.1600
     10 C10       -11.0819   -1.3922   60.9410 C.3     1  ZINC000194290865   -0.1200
     11 C11       -12.6151   -1.3280   60.7270 C.3     1  ZINC000194290865    0.0900
     12 N12       -12.7531   -0.5048   59.5034 N.am    1  ZINC000194290865   -0.6100
     13 C13       -13.6277   -0.6899   58.4949 C.2     1  ZINC000194290865    0.5800
     14 O14       -13.6296    0.0685   57.5453 O.2     1  ZINC000194290865   -0.5000
     15 C15       -14.5860   -1.8168   58.5439 C.ar    1  ZINC000194290865    0.0100
     16 C16       -14.3247   -3.0239   57.8673 C.ar    1  ZINC000194290865   -0.2200
     17 C17       -15.2614   -4.0693   57.9398 C.ar    1  ZINC000194290865    0.3000
     18 N18       -16.3755   -3.9139   58.6385 N.ar    1  ZINC000194290865   -0.4700
     19 C19       -16.6465   -2.7977   59.2807 C.ar    1  ZINC000194290865    0.2100
     20 C20       -17.9338   -2.6909   60.0569 C.3     1  ZINC000194290865   -0.1100
     21 C21       -15.7751   -1.7206   59.2664 C.ar    1  ZINC000194290865   -0.1800
     22 O22       -14.7654   -5.0898   57.2115 O.3     1  ZINC000194290865   -0.0800
     23 N23       -13.5159   -4.7155   56.6677 N.2     1  ZINC000194290865   -0.2600
     24 C24       -13.2240   -3.5045   57.0331 C.2     1  ZINC000194290865    0.1600
     25 C25       -11.9809   -2.7360   56.6651 C.3     1  ZINC000194290865   -0.0400
     26 C26       -10.7542   -3.4416   57.2466 C.3     1  ZINC000194290865   -0.1500
     27 C27       -11.8557   -2.6678   55.1418 C.3     1  ZINC000194290865   -0.1400
     28 C28       -11.7383    0.5596   59.6150 C.3     1  ZINC000194290865    0.1200
     29 H29        -9.4238   -0.3095   65.4072 H       1  ZINC000194290865    0.0700
     30 H30        -8.0296    0.5489   64.7087 H       1  ZINC000194290865    0.0700
     31 H31        -9.0097    1.3258   65.9754 H       1  ZINC000194290865    0.0800
     32 H32       -10.9529    1.3839   64.4362 H       1  ZINC000194290865    0.0700
     33 H33        -9.5587    2.2422   63.7378 H       1  ZINC000194290865    0.0700
     34 H34        -9.4401   -0.6484   58.8494 H       1  ZINC000194290865    0.0900
     35 H35        -9.6082    1.8234   58.7440 H       1  ZINC000194290865    0.0500
     36 H36        -8.7062    1.9499   60.2733 H       1  ZINC000194290865    0.0800
     37 H37        -7.9082    1.3014   58.8203 H       1  ZINC000194290865    0.0600
     38 H38        -8.5520   -1.7157   60.9038 H       1  ZINC000194290865    0.0500
     39 H39        -7.2914   -0.7654   60.0816 H       1  ZINC000194290865    0.0600
     40 H40        -8.0894   -0.1168   61.5345 H       1  ZINC000194290865    0.0800
     41 H41       -10.6339   -2.1505   60.2988 H       1  ZINC000194290865    0.0900
     42 H42       -10.8459   -1.5830   61.9879 H       1  ZINC000194290865    0.0900
     43 H43       -13.0233   -2.3259   60.5672 H       1  ZINC000194290865    0.0900
     44 H44       -13.1017   -0.8434   61.5735 H       1  ZINC000194290865    0.0900
     45 H45       -17.7707   -3.0310   61.0795 H       1  ZINC000194290865    0.0900
     46 H46       -18.2664   -1.6529   60.0678 H       1  ZINC000194290865    0.0900
     47 H47       -18.6953   -3.3115   59.5847 H       1  ZINC000194290865    0.0900
     48 H48       -16.0178   -0.8142   59.8011 H       1  ZINC000194290865    0.1600
     49 H49       -12.0450   -1.7260   57.0701 H       1  ZINC000194290865    0.1100
     50 H50       -10.6901   -4.4517   56.8417 H       1  ZINC000194290865    0.0700
     51 H51        -9.8551   -2.8858   56.9805 H       1  ZINC000194290865    0.0700
     52 H52       -10.8434   -3.4903   58.3319 H       1  ZINC000194290865    0.0600
     53 H53       -12.7296   -2.1650   54.7276 H       1  ZINC000194290865    0.0600
     54 H54       -10.9567   -2.1119   54.8758 H       1  ZINC000194290865    0.0700
     55 H55       -11.7916   -3.6777   54.7369 H       1  ZINC000194290865    0.0600
     56 H56       -12.1819    1.4504   60.0596 H       1  ZINC000194290865    0.0800
     57 H57       -11.3365    0.7942   58.6293 H       1  ZINC000194290865    0.1000
@<TRIPOS>BOND
     1     1     2    1
     2     1    29    1
     3     1    30    1
     4     1    31    1
     5     2     3    1
     6     2    32    1
     7     2    33    1
     8     3     4    1
     9     4     5    2
    10     4     6    1
    11     6    28    1
    12     6     7    1
    13     6    10    1
    14     7     8    1
    15     7     9    1
    16     7    34    1
    17     8    35    1
    18     8    36    1
    19     8    37    1
    20     9    38    1
    21     9    39    1
    22     9    40    1
    23    10    11    1
    24    10    41    1
    25    10    42    1
    26    11    12    1
    27    11    43    1
    28    11    44    1
    29    12    13   am
    30    12    28    1
    31    13    14    2
    32    13    15    1
    33    15    21   ar
    34    15    16   ar
    35    16    24    1
    36    16    17   ar
    37    17    18   ar
    38    17    22    1
    39    18    19   ar
    40    19    20    1
    41    19    21   ar
    42    20    45    1
    43    20    46    1
    44    20    47    1
    45    21    48    1
    46    22    23    1
    47    23    24    2
    48    24    25    1
    49    25    26    1
    50    25    27    1
    51    25    49    1
    52    26    50    1
    53    26    51    1
    54    26    52    1
    55    27    53    1
    56    27    54    1
    57    27    55    1
    58    28    56    1
    59    28    57    1
@<TRIPOS>SUBSTRUCTURE
     1 ZINC000194290865        1 TEMP              0 ****  ****    0 ROOT


##########                                Name:    ZINC000269287897
##########                DOCK_Rotatable_Bonds:                   8
##########                         Heavy_Atoms:                  23
##########                    Molecular_Weight:             385.301
##########                DOCK_Rotatable_Bonds:                   8
##########                       Formal_Charge:           0.0300002
##########                     HBond_Acceptors:                   5
##########                        HBond_Donors:                   1
##########                         Heavy_Atoms:                  23
##########                          Grid_Score:          -28.618849
##########                     Grid_vdw_energy:          -28.400709
##########                      Grid_es_energy:           -0.218140
##########           Internal_energy_repulsive:            9.020894

@<TRIPOS>MOLECULE
ZINC000269287897
 48 49 1 0 0
SMALL
USER_CHARGES


@<TRIPOS>ATOM
      1 C1         -6.8913   -1.2152   51.3430 C.3     1  ZINC000269287897    0.0300
      2 O2         -6.4850   -0.0606   50.6055 O.3     1  ZINC000269287897   -0.3800
      3 C3         -6.8093    1.1780   51.2398 C.3     1  ZINC000269287897    0.0600
      4 C4         -6.6706    2.3195   50.2304 C.3     1  ZINC000269287897    0.0600
      5 O5         -5.2990    2.4591   49.8547 O.3     1  ZINC000269287897   -0.3800
      6 C6         -4.4619    2.9751   50.8915 C.3     1  ZINC000269287897    0.0700
      7 C7         -3.1301    3.4311   50.2923 C.3     1  ZINC000269287897   -0.1000
      8 H8         -3.2211    4.4250   49.8542 H       1  ZINC000269287897    0.1000
      9 C9         -2.0000    3.3930   51.3549 C.3     1  ZINC000269287897   -0.1200
     10 C10        -0.7296    3.1954   50.5014 C.3     1  ZINC000269287897    0.1000
     11 N11        -1.1508    2.6080   49.2212 N.am    1  ZINC000269287897   -0.6300
     12 C12        -0.3365    2.3009   48.1921 C.2     1  ZINC000269287897    0.7300
     13 O13        -0.7969    1.8177   47.1757 O.2     1  ZINC000269287897   -0.5600
     14 N14         0.9882    2.5294   48.2896 N.am    1  ZINC000269287897   -0.6900
     15 C15         1.8340    2.2104   47.2207 C.ar    1  ZINC000269287897    0.1800
     16 C16         2.2703    0.9045   47.0446 C.ar    1  ZINC000269287897   -0.0600
     17 C17         1.8338   -0.1724   48.0043 C.3     1  ZINC000269287897   -0.1000
     18 C18         3.1046    0.5927   45.9884 C.ar    1  ZINC000269287897   -0.0900
     19 C19         3.5053    1.5796   45.1070 C.ar    1  ZINC000269287897   -0.0800
     20 C20         4.4154    1.2354   43.9563 C.3     1  ZINC000269287897   -0.1100
     21 C21         3.0724    2.8819   45.2788 C.ar    1  ZINC000269287897   -0.0900
     22 C22         2.2340    3.1995   46.3302 C.ar    1  ZINC000269287897   -0.1000
     23 Br23        1.6420    4.9801   46.5643 Br      1  ZINC000269287897   -0.0500
     24 C24        -2.6119    2.4098   49.2492 C.3     1  ZINC000269287897    0.1400
     25 H25        -6.4022   -1.2149   52.3171 H       1  ZINC000269287897    0.0400
     26 H26        -7.9727   -1.1972   51.4794 H       1  ZINC000269287897    0.0400
     27 H27        -6.6092   -2.1142   50.7950 H       1  ZINC000269287897    0.0900
     28 H28        -7.8349    1.1406   51.6071 H       1  ZINC000269287897    0.0600
     29 H29        -6.1301    1.3473   52.0753 H       1  ZINC000269287897    0.0600
     30 H30        -7.2687    2.0977   49.3466 H       1  ZINC000269287897    0.0700
     31 H31        -7.0200    3.2481   50.6818 H       1  ZINC000269287897    0.0600
     32 H32        -4.9547    3.8223   51.3686 H       1  ZINC000269287897    0.0600
     33 H33        -4.2794    2.1966   51.6324 H       1  ZINC000269287897    0.0500
     34 H34        -1.9540    4.3343   51.9027 H       1  ZINC000269287897    0.0900
     35 H35        -2.1405    2.5548   52.0374 H       1  ZINC000269287897    0.0800
     36 H36        -0.2468    4.1570   50.3270 H       1  ZINC000269287897    0.0700
     37 H37        -0.0422    2.5201   51.0107 H       1  ZINC000269287897    0.0700
     38 H38         1.3555    2.9148   49.1004 H       1  ZINC000269287897    0.4100
     39 H39         0.9926   -0.7193   47.5786 H       1  ZINC000269287897    0.0900
     40 H40         2.6617   -0.8590   48.1808 H       1  ZINC000269287897    0.0600
     41 H41         1.5315    0.2825   48.9476 H       1  ZINC000269287897    0.0600
     42 H42         3.4444   -0.4232   45.8513 H       1  ZINC000269287897    0.1300
     43 H43         3.8159    0.9585   43.0891 H       1  ZINC000269287897    0.0700
     44 H44         5.0326    2.0996   43.7101 H       1  ZINC000269287897    0.0700
     45 H45         5.0560    0.3996   44.2371 H       1  ZINC000269287897    0.0700
     46 H46         3.3872    3.6506   44.5886 H       1  ZINC000269287897    0.1400
     47 H47        -2.8509    1.3937   49.5630 H       1  ZINC000269287897    0.0700
     48 H48        -3.0416    2.6160   48.2689 H       1  ZINC000269287897    0.0900
@<TRIPOS>BOND
     1     1     2    1
     2     1    25    1
     3     1    26    1
     4     1    27    1
     5     2     3    1
     6     3     4    1
     7     3    28    1
     8     3    29    1
     9     4     5    1
    10     4    30    1
    11     4    31    1
    12     5     6    1
    13     6     7    1
    14     6    32    1
    15     6    33    1
    16     7     8    1
    17     7    24    1
    18     7     9    1
    19     9    10    1
    20     9    34    1
    21     9    35    1
    22    10    11    1
    23    10    36    1
    24    10    37    1
    25    11    12   am
    26    11    24    1
    27    12    13    2
    28    12    14   am
    29    14    15    1
    30    14    38    1
    31    15    22   ar
    32    15    16   ar
    33    16    17    1
    34    16    18   ar
    35    17    39    1
    36    17    40    1
    37    17    41    1
    38    18    19   ar
    39    18    42    1
    40    19    20    1
    41    19    21   ar
    42    20    43    1
    43    20    44    1
    44    20    45    1
    45    21    22   ar
    46    21    46    1
    47    22    23    1
    48    24    47    1
    49    24    48    1
@<TRIPOS>SUBSTRUCTURE
     1 ZINC000269287897        1 TEMP              0 ****  ****    0 ROOT


##########                                Name:    ZINC001199210165
##########                DOCK_Rotatable_Bonds:                   5
##########                         Heavy_Atoms:                  23
##########                    Molecular_Weight:             375.225
##########                DOCK_Rotatable_Bonds:                   5
##########                       Formal_Charge:         -0.00999999
##########                     HBond_Acceptors:                   6
##########                        HBond_Donors:                   2
##########                         Heavy_Atoms:                  23
##########                          Grid_Score:          -28.602776
##########                     Grid_vdw_energy:          -28.192608
##########                      Grid_es_energy:           -0.410168
##########           Internal_energy_repulsive:            5.091019

@<TRIPOS>MOLECULE
ZINC001199210165
 38 40 1 0 0
SMALL
USER_CHARGES


@<TRIPOS>ATOM
      1 C1          0.6378    1.5236   47.9767 C.3     1  ZINC001199210165   -0.1700
      2 C2          0.1528    2.8545   47.3986 C.3     1  ZINC001199210165    0.0800
      3 C3          0.6129    2.9769   45.9446 C.3     1  ZINC001199210165   -0.1500
      4 O4         -1.2743    2.9054   47.4525 O.3     1  ZINC001199210165   -0.3000
      5 C5         -1.8382    3.1000   48.6712 C.ar    1  ZINC001199210165    0.3300
      6 C6         -3.0869    2.5579   48.9441 C.ar    1  ZINC001199210165   -0.1300
      7 C7         -3.6540    2.7668   50.2028 C.ar    1  ZINC001199210165   -0.0600
      8 C8         -4.9836    2.2078   50.5402 C.2     1  ZINC001199210165    0.5700
      9 O9         -5.8587    2.1706   49.6978 O.2     1  ZINC001199210165   -0.4900
     10 N10        -5.2228    1.7406   51.7815 N.am    1  ZINC001199210165   -0.6600
     11 C11        -6.4777    1.2129   52.1001 C.ar    1  ZINC001199210165    0.2000
     12 C12        -6.8026   -0.0864   51.7072 C.ar    1  ZINC001199210165   -0.1500
     13 C13        -8.0213   -0.6176   52.0093 C.ar    1  ZINC001199210165   -0.0200
     14 C14        -8.9569    0.1432   52.7193 C.ar    1  ZINC001199210165   -0.1700
     15 C15       -10.3145   -0.1086   53.1943 C.2     1  ZINC001199210165    0.0900
     16 Br16      -11.2983   -1.7066   52.9606 Br      1  ZINC001199210165    0.0600
     17 N17       -10.7268    0.9639   53.8083 N.2     1  ZINC001199210165   -0.2100
     18 N18        -9.7297    1.9445   53.7847 N.pl3   1  ZINC001199210165   -0.4900
     19 C19        -8.6357    1.4554   53.1190 C.ar    1  ZINC001199210165    0.1500
     20 C20        -7.3854    1.9802   52.8069 C.ar    1  ZINC001199210165   -0.1700
     21 C21        -2.9323    3.5182   51.1371 C.ar    1  ZINC001199210165   -0.1900
     22 C22        -1.6966    4.0215   50.7842 C.ar    1  ZINC001199210165    0.1400
     23 N23        -1.1899    3.7992   49.5870 N.ar    1  ZINC001199210165   -0.5200
     24 H24         0.2226    0.7014   47.3939 H       1  ZINC001199210165    0.0600
     25 H25         1.7263    1.4847   47.9357 H       1  ZINC001199210165    0.0700
     26 H26         0.3100    1.4364   49.0125 H       1  ZINC001199210165    0.0600
     27 H27         0.5679    3.6767   47.9814 H       1  ZINC001199210165    0.0900
     28 H28         0.1977    2.1547   45.3616 H       1  ZINC001199210165    0.0700
     29 H29         0.2674    3.9251   45.5327 H       1  ZINC001199210165    0.0600
     30 H30         1.7014    2.9380   45.9034 H       1  ZINC001199210165    0.0800
     31 H31        -3.6114    1.9840   48.1944 H       1  ZINC001199210165    0.1600
     32 H32        -4.5243    1.7702   52.4540 H       1  ZINC001199210165    0.4100
     33 H33        -6.0827   -0.6759   51.1589 H       1  ZINC001199210165    0.1500
     34 H34        -8.2643   -1.6238   51.7010 H       1  ZINC001199210165    0.1400
     35 H35        -9.8008    2.8288   54.1769 H       1  ZINC001199210165    0.4500
     36 H36        -7.1263    2.9831   53.1126 H       1  ZINC001199210165    0.1400
     37 H37        -3.3371    3.7021   52.1213 H       1  ZINC001199210165    0.1400
     38 H38        -1.1345    4.6024   51.5003 H       1  ZINC001199210165    0.1700
@<TRIPOS>BOND
     1     1     2    1
     2     1    24    1
     3     1    25    1
     4     1    26    1
     5     2     3    1
     6     2     4    1
     7     2    27    1
     8     3    28    1
     9     3    29    1
    10     3    30    1
    11     4     5    1
    12     5    23   ar
    13     5     6   ar
    14     6     7   ar
    15     6    31    1
    16     7     8    1
    17     7    21   ar
    18     8     9    2
    19     8    10   am
    20    10    11    1
    21    10    32    1
    22    11    20   ar
    23    11    12   ar
    24    12    13   ar
    25    12    33    1
    26    13    14   ar
    27    13    34    1
    28    14    19   ar
    29    14    15    1
    30    15    16    1
    31    15    17    2
    32    17    18    1
    33    18    19    1
    34    18    35    1
    35    19    20   ar
    36    20    36    1
    37    21    22   ar
    38    21    37    1
    39    22    23   ar
    40    22    38    1
@<TRIPOS>SUBSTRUCTURE
     1 ZINC001199210165        1 TEMP              0 ****  ****    0 ROOT


##########                                Name:    ZINC000274267583
##########                DOCK_Rotatable_Bonds:                   5
##########                         Heavy_Atoms:                  24
##########                    Molecular_Weight:             349.407
##########                DOCK_Rotatable_Bonds:                   5
##########                       Formal_Charge:           0.0300001
##########                     HBond_Acceptors:                   7
##########                        HBond_Donors:                   1
##########                         Heavy_Atoms:                  24
##########                          Grid_Score:          -28.591991
##########                     Grid_vdw_energy:          -26.764009
##########                      Grid_es_energy:           -1.827982
##########           Internal_energy_repulsive:           16.334936

@<TRIPOS>MOLECULE
ZINC000274267583
 43 45 1 0 0
SMALL
USER_CHARGES


@<TRIPOS>ATOM
      1 C1          2.4475   -2.0943   49.0720 C.3     1  ZINC000274267583    0.0200
      2 O2          1.9964   -1.0975   48.1528 O.3     1  ZINC000274267583   -0.3100
      3 C3          1.8902    0.1730   48.6237 C.ar    1  ZINC000274267583    0.1900
      4 C4          1.4292    1.1851   47.7943 C.ar    1  ZINC000274267583   -0.2300
      5 C5          1.3217    2.4756   48.2756 C.ar    1  ZINC000274267583    0.0300
      6 C6          1.6734    2.7590   49.5824 C.ar    1  ZINC000274267583   -0.7200
      7 S7          1.5357    4.4060   50.1928 S.o2    1  ZINC000274267583    2.7000
      8 O8          2.3192    4.4620   51.3770 O.2     1  ZINC000274267583   -0.9500
      9 O9          1.7458    5.2651   49.0806 O.2     1  ZINC000274267583   -0.9500
     10 N10        -0.0372    4.6249   50.6622 N.am    1  ZINC000274267583   -1.1100
     11 C11        -0.6158    3.7738   51.7049 C.3     1  ZINC000274267583    0.2100
     12 H12         0.0585    2.9423   51.9098 H       1  ZINC000274267583    0.1000
     13 C13        -0.8137    4.5954   52.9811 C.3     1  ZINC000274267583   -0.1800
     14 C14        -1.6800    3.7802   53.9497 C.3     1  ZINC000274267583    0.0600
     15 O15        -2.9731    3.6141   53.3665 O.3     1  ZINC000274267583   -0.3100
     16 C16        -3.0385    3.1796   52.0800 C.ar    1  ZINC000274267583    0.1100
     17 C17        -4.2445    2.6663   51.6149 C.ar    1  ZINC000274267583   -0.1100
     18 C18        -4.3551    2.2190   50.3141 C.ar    1  ZINC000274267583   -0.1600
     19 C19        -3.2596    2.2815   49.4662 C.ar    1  ZINC000274267583    0.0900
     20 O20        -3.3655    1.8442   48.1830 O.3     1  ZINC000274267583   -0.3200
     21 C21        -2.2164    1.9996   47.3477 C.3     1  ZINC000274267583    0.0300
     22 C22        -2.0568    2.7907   49.9291 C.ar    1  ZINC000274267583   -0.1000
     23 C23        -1.9446    3.2382   51.2352 C.ar    1  ZINC000274267583   -0.1400
     24 C24         2.1327    1.7519   50.4110 C.ar    1  ZINC000274267583    0.0200
     25 C25         2.2372    0.4588   49.9362 C.ar    1  ZINC000274267583   -0.1700
     26 H26         3.4417   -1.8318   49.4337 H       1  ZINC000274267583    0.0600
     27 H27         1.7577   -2.1507   49.9141 H       1  ZINC000274267583    0.0600
     28 H28         2.4871   -3.0607   48.5694 H       1  ZINC000274267583    0.1100
     29 H29         1.1550    0.9644   46.7734 H       1  ZINC000274267583    0.1400
     30 H30         0.9628    3.2638   47.6303 H       1  ZINC000274267583    0.1400
     31 H31        -0.5757    5.3166   50.2466 H       1  ZINC000274267583    0.4200
     32 H32         0.1538    4.8022   53.4386 H       1  ZINC000274267583    0.1000
     33 H33        -1.3147    5.5331   52.7404 H       1  ZINC000274267583    0.0900
     34 H34        -1.2246    2.8041   54.1169 H       1  ZINC000274267583    0.0700
     35 H35        -1.7701    4.3111   54.8974 H       1  ZINC000274267583    0.1200
     36 H36        -5.0982    2.6173   52.2747 H       1  ZINC000274267583    0.1400
     37 H37        -5.2933    1.8205   49.9572 H       1  ZINC000274267583    0.1400
     38 H38        -1.9590    3.0565   47.2767 H       1  ZINC000274267583    0.0600
     39 H39        -1.3786    1.4497   47.7764 H       1  ZINC000274267583    0.0600
     40 H40        -2.4351    1.6113   46.3530 H       1  ZINC000274267583    0.1000
     41 H41        -1.2036    2.8390   49.2688 H       1  ZINC000274267583    0.1300
     42 H42         2.4066    1.9757   51.4315 H       1  ZINC000274267583    0.1500
     43 H43         2.5959   -0.3274   50.5838 H       1  ZINC000274267583    0.1400
@<TRIPOS>BOND
     1     1     2    1
     2     1    26    1
     3     1    27    1
     4     1    28    1
     5     2     3    1
     6     3    25   ar
     7     3     4   ar
     8     4     5   ar
     9     4    29    1
    10     5     6   ar
    11     5    30    1
    12     6     7    1
    13     6    24   ar
    14     7     8    2
    15     7     9    2
    16     7    10   am
    17    10    11    1
    18    10    31    1
    19    11    12    1
    20    11    23    1
    21    11    13    1
    22    13    14    1
    23    13    32    1
    24    13    33    1
    25    14    15    1
    26    14    34    1
    27    14    35    1
    28    15    16    1
    29    16    23   ar
    30    16    17   ar
    31    17    18   ar
    32    17    36    1
    33    18    19   ar
    34    18    37    1
    35    19    20    1
    36    19    22   ar
    37    20    21    1
    38    21    38    1
    39    21    39    1
    40    21    40    1
    41    22    23   ar
    42    22    41    1
    43    24    25   ar
    44    24    42    1
    45    25    43    1
@<TRIPOS>SUBSTRUCTURE
     1 ZINC000274267583        1 TEMP              0 ****  ****    0 ROOT


##########                                Name:    ZINC000342525234
##########                DOCK_Rotatable_Bonds:                   6
##########                         Heavy_Atoms:                  25
##########                    Molecular_Weight:             333.349
##########                DOCK_Rotatable_Bonds:                   6
##########                       Formal_Charge:           0.0500003
##########                     HBond_Acceptors:                   7
##########                        HBond_Donors:                   2
##########                         Heavy_Atoms:                  25
##########                          Grid_Score:          -28.591763
##########                     Grid_vdw_energy:          -27.991394
##########                      Grid_es_energy:           -0.600369
##########           Internal_energy_repulsive:            4.362246

@<TRIPOS>MOLECULE
ZINC000342525234
 40 43 1 0 0
SMALL
USER_CHARGES


@<TRIPOS>ATOM
      1 O1         -7.9367   -1.0681   52.5534 O.2     1  <0>        -0.5100
      2 C2         -8.6310   -0.0744   52.4727 C.2     1  <0>         0.6000
      3 N3         -8.1122    1.0729   51.9922 N.am    1  <0>        -0.7100
      4 C4         -6.7094    1.1235   51.5729 C.3     1  <0>         0.1200
      5 C5         -6.2156    2.5709   51.6175 C.3     1  <0>        -0.0900
      6 C6         -4.8181    2.6423   51.0581 C.ar    1  <0>        -0.0400
      7 C7         -4.5989    2.2480   49.7789 C.ar    1  <0>        -0.1000
      8 C8         -3.2940    2.3104   49.2442 C.ar    1  <0>         0.1100
      9 N9         -2.7540    2.0136   48.0761 N.2     1  <0>        -0.3100
     10 N10        -1.3824    2.2872   48.1265 N.pl3   1  <0>        -0.4200
     11 C11        -1.0547    2.7606   49.3364 C.2     1  <0>         0.0900
     12 C12        -2.2056    2.8058   50.1011 C.ar    1  <0>        -0.2100
     13 C13        -2.5069    3.1991   51.4226 C.ar    1  <0>        -0.0400
     14 C14        -3.7853    3.1179   51.8693 C.ar    1  <0>        -0.1500
     15 C15       -10.0515   -0.1255   52.8972 C.2     1  <0>        -0.0200
     16 N16       -10.9267    0.8479   52.8325 N.2     1  <0>        -0.3200
     17 O17       -12.0074    0.5075   53.2534 O.3     1  <0>         0.1400
     18 C18       -12.0008   -0.7719   53.6669 C.2     1  <0>         0.0100
     19 C19       -13.1385   -1.5247   54.2380 C.ar    1  <0>         0.0200
     20 C20       -12.9906   -2.8576   54.6383 C.ar    1  <0>        -0.1400
     21 C21       -14.0784   -3.5219   55.1665 C.ar    1  <0>         0.1100
     22 N22       -15.2440   -2.9177   55.2955 N.ar    1  <0>        -0.4800
     23 C23       -15.4265   -1.6630   54.9308 C.ar    1  <0>         0.1100
     24 C24       -14.3915   -0.9222   54.3985 C.ar    1  <0>        -0.1500
     25 C25       -10.7356   -1.2406   53.4489 C.2     1  <0>        -0.1500
     26 H26        -8.6676    1.8652   51.9241 H       1  <0>         0.4100
     27 H27        -6.1069    0.5130   52.2455 H       1  <0>         0.0800
     28 H28        -6.6201    0.7403   50.5564 H       1  <0>         0.0800
     29 H29        -6.8779    3.1992   51.0221 H       1  <0>         0.0900
     30 H30        -6.2123    2.9219   52.6495 H       1  <0>         0.0800
     31 H31        -5.4175    1.8883   49.1734 H       1  <0>         0.1300
     32 H32        -0.7608    2.1538   47.3940 H       1  <0>         0.4500
     33 H33        -0.0664    3.0545   49.6575 H       1  <0>         0.1900
     34 H34        -1.7262    3.5663   52.0722 H       1  <0>         0.1300
     35 H35        -4.0088    3.4209   52.8816 H       1  <0>         0.1200
     36 H36       -12.0394   -3.3587   54.5351 H       1  <0>         0.1400
     37 H37       -13.9743   -4.5506   55.4784 H       1  <0>         0.1700
     38 H38       -16.3983   -1.2085   55.0545 H       1  <0>         0.1700
     39 H39       -14.5481    0.1045   54.1022 H       1  <0>         0.1500
     40 H40       -10.3456   -2.2266   53.6544 H       1  <0>         0.1900
@<TRIPOS>BOND
     1     1     2    2
     2     2     3   am
     3     2    15    1
     4     3     4    1
     5     3    26    1
     6     4     5    1
     7     4    27    1
     8     4    28    1
     9     5     6    1
    10     5    29    1
    11     5    30    1
    12     6    14   ar
    13     6     7   ar
    14     7     8   ar
    15     7    31    1
    16     8    12   ar
    17     8     9    2
    18     9    10    1
    19    10    11    1
    20    10    32    1
    21    11    12    2
    22    11    33    1
    23    12    13   ar
    24    13    14   ar
    25    13    34    1
    26    14    35    1
    27    15    25    1
    28    15    16    2
    29    16    17    1
    30    17    18    1
    31    18    19    1
    32    18    25    2
    33    19    24   ar
    34    19    20   ar
    35    20    21   ar
    36    20    36    1
    37    21    22   ar
    38    21    37    1
    39    22    23   ar
    40    23    24   ar
    41    23    38    1
    42    24    39    1
    43    25    40    1
@<TRIPOS>SUBSTRUCTURE
     1 <0>         1 TEMP              0 ****  ****    0 ROOT


##########                                Name:    ZINC000894043060
##########                DOCK_Rotatable_Bonds:                  11
##########                         Heavy_Atoms:                  26
##########                    Molecular_Weight:             396.812
##########                DOCK_Rotatable_Bonds:                  11
##########                       Formal_Charge:          -0.0199999
##########                     HBond_Acceptors:                   9
##########                        HBond_Donors:                   2
##########                         Heavy_Atoms:                  26
##########                          Grid_Score:          -28.588133
##########                     Grid_vdw_energy:          -28.066137
##########                      Grid_es_energy:           -0.521995
##########           Internal_energy_repulsive:           11.115946

@<TRIPOS>MOLECULE
ZINC000894043060
 47 47 1 0 0
SMALL
USER_CHARGES


@<TRIPOS>ATOM
      1 C1          3.5850    0.5134   50.2349 C.3     1  ZINC000894043060   -0.1700
      2 C2          3.0711   -0.4762   49.1872 C.3     1  ZINC000894043060    0.1000
      3 H3          3.8340   -0.6250   48.4230 H       1  ZINC000894043060    0.1100
      4 N4          1.8559    0.0569   48.5666 N.am    1  ZINC000894043060   -0.7300
      5 C5          1.9411    0.7913   47.4397 C.2     1  ZINC000894043060    0.5200
      6 O6          3.0240    1.0121   46.9403 O.2     1  ZINC000894043060   -0.5200
      7 C7          0.6907    1.3381   46.8004 C.3     1  ZINC000894043060   -0.1400
      8 C8          0.4613    2.7743   47.2753 C.3     1  ZINC000894043060   -0.0200
      9 C9          0.1379    3.6635   46.0729 C.3     1  ZINC000894043060   -0.1400
     10 C10         1.4186    4.0751   45.3937 C.2     1  ZINC000894043060    0.5200
     11 O11         2.2889    4.6335   46.0275 O.2     1  ZINC000894043060   -0.5200
     12 N12         1.5969    3.8227   44.0817 N.am    1  ZINC000894043060   -0.7300
     13 C13         2.8426    4.2213   43.4218 C.3     1  ZINC000894043060    0.1000
     14 H14         3.2748    5.0737   43.9459 H       1  ZINC000894043060    0.1200
     15 C15         3.8299    3.0528   43.4476 C.3     1  ZINC000894043060   -0.1700
     16 C16         2.5496    4.6096   41.9712 C.3     1  ZINC000894043060    0.2600
     17 F17         1.6468    5.6781   41.9477 F       1  ZINC000894043060   -0.1900
     18 F18         3.7391    4.9902   41.3410 F       1  ZINC000894043060   -0.2000
     19 C19        -0.6906    2.8042   48.2465 C.ar    1  ZINC000894043060   -0.0600
     20 C20        -0.4890    3.2358   49.5442 C.ar    1  ZINC000894043060   -0.1200
     21 C21        -1.5451    3.2635   50.4355 C.ar    1  ZINC000894043060   -0.1200
     22 C22        -2.8041    2.8591   50.0286 C.ar    1  ZINC000894043060   -0.0400
     23 Cl23       -4.1311    2.8941   51.1474 Cl      1  ZINC000894043060   -0.0800
     24 C24        -3.0052    2.4272   48.7297 C.ar    1  ZINC000894043060   -0.1100
     25 C25        -1.9496    2.4054   47.8378 C.ar    1  ZINC000894043060   -0.0400
     26 C26         2.7557   -1.8135   49.8602 C.3     1  ZINC000894043060    0.2600
     27 F27         2.2834   -2.7174   48.9027 F       1  ZINC000894043060   -0.2000
     28 F28         3.9168   -2.3237   50.4506 F       1  ZINC000894043060   -0.1900
     29 H29         2.8220    0.6623   50.9991 H       1  ZINC000894043060    0.0600
     30 H30         4.4892    0.1169   50.6966 H       1  ZINC000894043060    0.0800
     31 H31         3.8097    1.4662   49.7554 H       1  ZINC000894043060    0.0800
     32 H32         0.9898   -0.1188   48.9668 H       1  ZINC000894043060    0.4000
     33 H33         0.8026    1.3274   45.7162 H       1  ZINC000894043060    0.1000
     34 H34        -0.1620    0.7211   47.0838 H       1  ZINC000894043060    0.1000
     35 H35         1.3614    3.1423   47.7677 H       1  ZINC000894043060    0.1000
     36 H36        -0.4851    3.1111   45.3695 H       1  ZINC000894043060    0.1000
     37 H37        -0.3958    4.5517   46.4110 H       1  ZINC000894043060    0.1000
     38 H38         0.9003    3.3772   43.5745 H       1  ZINC000894043060    0.4000
     39 H39         3.3976    2.2004   42.9234 H       1  ZINC000894043060    0.0700
     40 H40         4.7567    3.3493   42.9565 H       1  ZINC000894043060    0.0800
     41 H41         4.0386    2.7761   44.4810 H       1  ZINC000894043060    0.0700
     42 H42         2.1173    3.7572   41.4472 H       1  ZINC000894043060    0.1200
     43 H43         0.4938    3.5511   49.8618 H       1  ZINC000894043060    0.1200
     44 H44        -1.3875    3.6003   51.4495 H       1  ZINC000894043060    0.1300
     45 H45        -3.9877    2.1111   48.4116 H       1  ZINC000894043060    0.1300
     46 H46        -2.1065    2.0686   46.8237 H       1  ZINC000894043060    0.1300
     47 H47         1.9943   -1.6642   50.6258 H       1  ZINC000894043060    0.1100
@<TRIPOS>BOND
     1     1     2    1
     2     1    29    1
     3     1    30    1
     4     1    31    1
     5     2     3    1
     6     2     4    1
     7     2    26    1
     8     4     5   am
     9     4    32    1
    10     5     6    2
    11     5     7    1
    12     7     8    1
    13     7    33    1
    14     7    34    1
    15     8     9    1
    16     8    19    1
    17     8    35    1
    18     9    10    1
    19     9    36    1
    20     9    37    1
    21    10    11    2
    22    10    12   am
    23    12    13    1
    24    12    38    1
    25    13    14    1
    26    13    15    1
    27    13    16    1
    28    15    39    1
    29    15    40    1
    30    15    41    1
    31    16    17    1
    32    16    18    1
    33    16    42    1
    34    19    25   ar
    35    19    20   ar
    36    20    21   ar
    37    20    43    1
    38    21    22   ar
    39    21    44    1
    40    22    23    1
    41    22    24   ar
    42    24    25   ar
    43    24    45    1
    44    25    46    1
    45    26    27    1
    46    26    28    1
    47    26    47    1
@<TRIPOS>SUBSTRUCTURE
     1 ZINC000894043060        1 TEMP              0 ****  ****    0 ROOT


##########                                Name:    ZINC000558052810
##########                DOCK_Rotatable_Bonds:                   9
##########                         Heavy_Atoms:                  30
##########                    Molecular_Weight:             424.524
##########                DOCK_Rotatable_Bonds:                   9
##########                       Formal_Charge:          -0.0200002
##########                     HBond_Acceptors:                   8
##########                        HBond_Donors:                   1
##########                         Heavy_Atoms:                  30
##########                          Grid_Score:          -28.586401
##########                     Grid_vdw_energy:          -28.700649
##########                      Grid_es_energy:            0.114248
##########           Internal_energy_repulsive:           10.504370

@<TRIPOS>MOLECULE
ZINC000558052810
 54 56 1 0 0
SMALL
USER_CHARGES


@<TRIPOS>ATOM
      1 C1        -18.0288   -2.7357   45.8778 C.3     1  ZINC000558052810   -0.1700
      2 C2        -18.1380   -2.2548   47.3261 C.3     1  ZINC000558052810    0.1100
      3 N3        -17.0571   -1.3071   47.6088 N.am    1  ZINC000558052810   -0.6100
      4 C4        -17.3435    0.1272   47.6920 C.3     1  ZINC000558052810    0.0700
      5 C5        -15.7992   -1.7549   47.7923 C.2     1  ZINC000558052810    0.5600
      6 O6        -15.5615   -2.9449   47.7235 O.2     1  ZINC000558052810   -0.5300
      7 C7        -14.7083   -0.7984   48.0775 C.ar    1  ZINC000558052810   -0.1100
      8 C8        -13.9327   -0.2894   47.0347 C.ar    1  ZINC000558052810   -0.1100
      9 C9        -12.9149    0.6033   47.3036 C.ar    1  ZINC000558052810   -0.1000
     10 C10       -12.6593    0.9958   48.6039 C.ar    1  ZINC000558052810   -0.1300
     11 C11       -13.4256    0.4944   49.6495 C.ar    1  ZINC000558052810    0.1400
     12 N12       -13.1626    0.8945   50.9640 N.am    1  ZINC000558052810   -0.6600
     13 C13       -12.5521    0.0480   51.8167 C.2     1  ZINC000558052810    0.5600
     14 O14       -12.2298   -1.0637   51.4434 O.2     1  ZINC000558052810   -0.4800
     15 C15       -12.2751    0.4695   53.2012 C.ar    1  ZINC000558052810   -0.1900
     16 C16       -13.1223    0.0845   54.2465 C.ar    1  ZINC000558052810   -0.0200
     17 C17       -12.8182    0.5065   55.5287 C.ar    1  ZINC000558052810   -0.1900
     18 C18       -11.6972    1.2891   55.7411 C.ar    1  ZINC000558052810    0.1500
     19 N19       -10.9108    1.6423   54.7435 N.ar    1  ZINC000558052810   -0.4900
     20 C20       -11.1511    1.2613   53.4976 C.ar    1  ZINC000558052810    0.1600
     21 S21       -10.0662    1.7630   52.2029 S.3     1  ZINC000558052810    0.0600
     22 C22        -8.4772    1.6472   53.0618 C.3     1  ZINC000558052810   -0.0700
     23 C23        -7.3676    1.5182   52.0504 C.2     1  ZINC000558052810   -0.2000
     24 C24        -6.6867    2.5101   51.4282 C.2     1  ZINC000558052810   -0.0100
     25 C25        -6.8875    3.9928   51.6080 C.3     1  ZINC000558052810   -0.0800
     26 O26        -5.7989    1.9125   50.6209 O.3     1  ZINC000558052810    0.1000
     27 N27        -5.8741    0.7077   50.6920 N.2     1  ZINC000558052810   -0.3600
     28 C28        -6.7920    0.3338   51.5359 C.2     1  ZINC000558052810    0.0300
     29 C29        -7.1723   -1.0814   51.8876 C.3     1  ZINC000558052810   -0.0800
     30 C30       -14.4544   -0.3974   49.3893 C.ar    1  ZINC000558052810   -0.0700
     31 H31       -18.1086   -1.8822   45.2045 H       1  ZINC000558052810    0.0600
     32 H32       -17.0670   -3.2268   45.7296 H       1  ZINC000558052810    0.0600
     33 H33       -18.8330   -3.4408   45.6675 H       1  ZINC000558052810    0.0700
     34 H34       -19.0997   -1.7637   47.4743 H       1  ZINC000558052810    0.0800
     35 H35       -18.0582   -3.1083   47.9994 H       1  ZINC000558052810    0.0800
     36 H36       -17.6766    0.3733   48.7002 H       1  ZINC000558052810    0.0600
     37 H37       -16.4408    0.6921   47.4595 H       1  ZINC000558052810    0.0800
     38 H38       -18.1264    0.3834   46.9781 H       1  ZINC000558052810    0.0700
     39 H39       -14.1288   -0.5943   46.0173 H       1  ZINC000558052810    0.1400
     40 H40       -12.3158    0.9959   46.4952 H       1  ZINC000558052810    0.1400
     41 H41       -11.8612    1.6943   48.8081 H       1  ZINC000558052810    0.1300
     42 H42       -13.4197    1.7811   51.2616 H       1  ZINC000558052810    0.4100
     43 H43       -13.9924   -0.5267   54.0568 H       1  ZINC000558052810    0.1400
     44 H44       -13.4517    0.2273   56.3577 H       1  ZINC000558052810    0.1500
     45 H45       -11.4621    1.6172   56.7429 H       1  ZINC000558052810    0.1700
     46 H46        -8.3212    2.5451   53.6597 H       1  ZINC000558052810    0.1000
     47 H47        -8.4789    0.7729   53.7129 H       1  ZINC000558052810    0.1000
     48 H48        -6.2439    4.3518   52.4112 H       1  ZINC000558052810    0.0900
     49 H49        -6.6347    4.5086   50.6817 H       1  ZINC000558052810    0.0900
     50 H50        -7.9291    4.1903   51.8613 H       1  ZINC000558052810    0.0900
     51 H51        -6.5683   -1.4217   52.7288 H       1  ZINC000558052810    0.0800
     52 H52        -8.2272   -1.1172   52.1597 H       1  ZINC000558052810    0.0800
     53 H53        -6.9964   -1.7291   51.0287 H       1  ZINC000558052810    0.0800
     54 H54       -15.0512   -0.7880   50.2003 H       1  ZINC000558052810    0.1500
@<TRIPOS>BOND
     1     1     2    1
     2     1    31    1
     3     1    32    1
     4     1    33    1
     5     2     3    1
     6     2    34    1
     7     2    35    1
     8     3     4    1
     9     3     5   am
    10     4    36    1
    11     4    37    1
    12     4    38    1
    13     5     6    2
    14     5     7    1
    15     7    30   ar
    16     7     8   ar
    17     8     9   ar
    18     8    39    1
    19     9    10   ar
    20     9    40    1
    21    10    11   ar
    22    10    41    1
    23    11    12    1
    24    11    30   ar
    25    12    13   am
    26    12    42    1
    27    13    14    2
    28    13    15    1
    29    15    20   ar
    30    15    16   ar
    31    16    17   ar
    32    16    43    1
    33    17    18   ar
    34    17    44    1
    35    18    19   ar
    36    18    45    1
    37    19    20   ar
    38    20    21    1
    39    21    22    1
    40    22    23    1
    41    22    46    1
    42    22    47    1
    43    23    28    1
    44    23    24    2
    45    24    25    1
    46    24    26    1
    47    25    48    1
    48    25    49    1
    49    25    50    1
    50    26    27    1
    51    27    28    2
    52    28    29    1
    53    29    51    1
    54    29    52    1
    55    29    53    1
    56    30    54    1
@<TRIPOS>SUBSTRUCTURE
     1 ZINC000558052810        1 TEMP              0 ****  ****    0 ROOT


##########                                Name:    ZINC001371344729
##########                DOCK_Rotatable_Bonds:                   9
##########                         Heavy_Atoms:                  24
##########                    Molecular_Weight:             332.399
##########                DOCK_Rotatable_Bonds:                   9
##########                       Formal_Charge:          0.00999983
##########                     HBond_Acceptors:                   6
##########                        HBond_Donors:                   1
##########                         Heavy_Atoms:                  24
##########                          Grid_Score:          -28.570860
##########                     Grid_vdw_energy:          -27.840866
##########                      Grid_es_energy:           -0.729994
##########           Internal_energy_repulsive:           22.795477

@<TRIPOS>MOLECULE
ZINC001371344729
 48 49 1 0 0
SMALL
USER_CHARGES


@<TRIPOS>ATOM
      1 C1         -3.0154    3.6400   57.1445 C.3     1  ZINC001371344729   -0.1800
      2 C2         -1.7993    4.4970   56.7876 C.3     1  ZINC001371344729    0.1000
      3 N3         -0.8130    3.6752   56.0817 N.am    1  ZINC001371344729   -0.6100
      4 C4         -0.0654    2.7851   56.7640 C.2     1  ZINC001371344729    0.5100
      5 O5          0.7501    2.1038   56.1795 O.2     1  ZINC001371344729   -0.5200
      6 C6         -0.2429    2.6365   58.2531 C.3     1  ZINC001371344729   -0.0600
      7 C7          1.0428    2.1437   58.8655 C.2     1  ZINC001371344729   -0.0100
      8 C8          1.1461    1.2492   59.8648 C.2     1  ZINC001371344729   -0.1600
      9 C9          0.0091    0.5591   60.5734 C.3     1  ZINC001371344729   -0.0800
     10 C10         2.5257    1.0854   60.1270 C.2     1  ZINC001371344729   -0.2100
     11 C11         3.1833    1.8824   59.2658 C.2     1  ZINC001371344729   -0.0300
     12 O12         2.2800    2.5238   58.5067 O.3     1  ZINC001371344729   -0.1700
     13 C13        -0.6393    3.8209   54.6344 C.3     1  ZINC001371344729    0.1200
     14 H14         0.0064    3.0247   54.2640 H       1  ZINC001371344729    0.1100
     15 C15        -0.0007    5.1779   54.3315 C.3     1  ZINC001371344729   -0.1600
     16 C16        -2.0027    3.7337   53.9457 C.3     1  ZINC001371344729    0.1100
     17 N17        -1.8137    3.4314   52.5248 N.am    1  ZINC001371344729   -0.7200
     18 C18        -2.8777    3.1405   51.7504 C.2     1  ZINC001371344729    0.5900
     19 O19        -3.9948    3.1301   52.2309 O.2     1  ZINC001371344729   -0.5300
     20 C20        -2.6873    2.8346   50.3214 C.2     1  ZINC001371344729   -0.2300
     21 C21        -3.5595    2.1922   49.4922 C.2     1  ZINC001371344729    0.0200
     22 O22        -3.0092    2.1183   48.2764 O.3     1  ZINC001371344729   -0.1700
     23 C23        -1.7919    2.6836   48.2666 C.2     1  ZINC001371344729   -0.0100
     24 C24        -0.8816    2.7770   47.0693 C.3     1  ZINC001371344729   -0.0800
     25 C25        -1.5150    3.1524   49.4930 C.2     1  ZINC001371344729   -0.1600
     26 H26        -2.7034    2.8158   57.7860 H       1  ZINC001371344729    0.0700
     27 H27        -3.7493    4.2514   57.6697 H       1  ZINC001371344729    0.0700
     28 H28        -3.4600    3.2421   56.2323 H       1  ZINC001371344729    0.0600
     29 H29        -1.3547    4.8947   57.6998 H       1  ZINC001371344729    0.0900
     30 H30        -2.1114    5.3212   56.1461 H       1  ZINC001371344729    0.0800
     31 H31        -1.0393    1.9200   58.4545 H       1  ZINC001371344729    0.1100
     32 H32        -0.5049    3.6020   58.6860 H       1  ZINC001371344729    0.1200
     33 H33        -0.2297   -0.3708   60.0572 H       1  ZINC001371344729    0.0700
     34 H34         0.3008    0.3398   61.6005 H       1  ZINC001371344729    0.0700
     35 H35        -0.8660    1.2089   60.5749 H       1  ZINC001371344729    0.0600
     36 H36         2.9670    0.4416   60.8735 H       1  ZINC001371344729    0.1500
     37 H37         4.2558    1.9922   59.1997 H       1  ZINC001371344729    0.2000
     38 H38         0.9707    5.2400   54.8221 H       1  ZINC001371344729    0.0700
     39 H39         0.1286    5.2864   53.2546 H       1  ZINC001371344729    0.0700
     40 H40        -0.6465    5.9741   54.7020 H       1  ZINC001371344729    0.0700
     41 H41        -2.5942    2.9443   54.4096 H       1  ZINC001371344729    0.0800
     42 H42        -2.5233    4.6858   54.0486 H       1  ZINC001371344729    0.0800
     43 H43        -0.9228    3.4408   52.1413 H       1  ZINC001371344729    0.4000
     44 H44        -4.5307    1.8101   49.7704 H       1  ZINC001371344729    0.2100
     45 H45        -0.2405    1.8963   47.0307 H       1  ZINC001371344729    0.0800
     46 H46        -1.4809    2.8304   46.1605 H       1  ZINC001371344729    0.0800
     47 H47        -0.2648    3.6720   47.1508 H       1  ZINC001371344729    0.0900
     48 H48        -0.6148    3.6598   49.8073 H       1  ZINC001371344729    0.1600
@<TRIPOS>BOND
     1     1     2    1
     2     1    26    1
     3     1    27    1
     4     1    28    1
     5     2     3    1
     6     2    29    1
     7     2    30    1
     8     3     4   am
     9     3    13    1
    10     4     5    2
    11     4     6    1
    12     6     7    1
    13     6    31    1
    14     6    32    1
    15     7    12    1
    16     7     8    2
    17     8     9    1
    18     8    10    1
    19     9    33    1
    20     9    34    1
    21     9    35    1
    22    10    11    2
    23    10    36    1
    24    11    12    1
    25    11    37    1
    26    13    14    1
    27    13    15    1
    28    13    16    1
    29    15    38    1
    30    15    39    1
    31    15    40    1
    32    16    17    1
    33    16    41    1
    34    16    42    1
    35    17    18   am
    36    17    43    1
    37    18    19    2
    38    18    20    1
    39    20    25    1
    40    20    21    2
    41    21    22    1
    42    21    44    1
    43    22    23    1
    44    23    24    1
    45    23    25    2
    46    24    45    1
    47    24    46    1
    48    24    47    1
    49    25    48    1
@<TRIPOS>SUBSTRUCTURE
     1 ZINC001371344729        1 TEMP              0 ****  ****    0 ROOT


##########                                Name:    ZINC000541252362
##########                DOCK_Rotatable_Bonds:                   5
##########                         Heavy_Atoms:                  27
##########                    Molecular_Weight:             401.254
##########                DOCK_Rotatable_Bonds:                   5
##########                       Formal_Charge:          -0.0199999
##########                     HBond_Acceptors:                   9
##########                        HBond_Donors:                   1
##########                         Heavy_Atoms:                  27
##########                          Grid_Score:          -28.545496
##########                     Grid_vdw_energy:          -28.479454
##########                      Grid_es_energy:           -0.066041
##########           Internal_energy_repulsive:            3.312793

@<TRIPOS>MOLECULE
ZINC000541252362
 41 44 1 0 0
SMALL
USER_CHARGES


@<TRIPOS>ATOM
      1 C1         -6.6486   -1.5238   51.4371 C.3     1  ZINC000541252362    0.1000
      2 N2         -6.9499   -0.1167   51.7124 N.pl3   1  ZINC000541252362   -0.3800
      3 C3         -8.1422    0.3969   52.0649 C.2     1  ZINC000541252362    0.2600
      4 N4         -8.0031    1.6867   52.2214 N.2     1  ZINC000541252362   -0.5300
      5 C5         -6.7336    2.0387   51.9777 C.2     1  ZINC000541252362    0.2700
      6 C6         -6.1884    3.4170   52.0535 C.ar    1  ZINC000541252362    0.0000
      7 C7         -7.0460    4.4977   52.2491 C.ar    1  ZINC000541252362   -0.1000
      8 C8         -6.5372    5.7795   52.3197 C.ar    1  ZINC000541252362   -0.1000
      9 C9         -5.1780    5.9954   52.1967 C.ar    1  ZINC000541252362   -0.1300
     10 C10        -4.3154    4.9235   52.0015 C.ar    1  ZINC000541252362    0.1400
     11 N11        -2.9393    5.1460   51.8773 N.am    1  ZINC000541252362   -0.6800
     12 C12        -2.3354    4.9832   50.6835 C.2     1  ZINC000541252362    0.5100
     13 O13        -2.9845    4.6438   49.7168 O.2     1  ZINC000541252362   -0.4900
     14 C14        -0.8536    5.2228   50.5498 C.3     1  ZINC000541252362   -0.0600
     15 C15        -0.1899    3.9797   50.0158 C.2     1  ZINC000541252362    0.0700
     16 C16         0.1647    2.8995   50.7461 C.2     1  ZINC000541252362   -0.0700
     17 N17         0.7331    1.9995   49.8867 N.pl3   1  ZINC000541252362   -0.3500
     18 C18         1.2644    0.7548   50.0712 C.2     1  ZINC000541252362    0.0700
     19 C19         1.7733    0.0629   49.0293 C.2     1  ZINC000541252362   -0.0500
     20 Cl20        2.4437   -1.5177   49.2861 Cl      1  ZINC000541252362   -0.0200
     21 C21         1.7620    0.6166   47.7376 C.2     1  ZINC000541252362   -0.0900
     22 C22         1.2351    1.8560   47.5402 C.2     1  ZINC000541252362    0.0200
     23 Cl23        1.2119    2.5560   45.9517 Cl      1  ZINC000541252362   -0.0100
     24 C24         0.7081    2.5656   48.6391 C.2     1  ZINC000541252362    0.2200
     25 N25         0.1405    3.7595   48.7413 N.2     1  ZINC000541252362   -0.4300
     26 C26        -4.8179    3.6330   51.9351 C.ar    1  ZINC000541252362   -0.0800
     27 N27        -6.0494    0.9599   51.6661 N.2     1  ZINC000541252362   -0.3100
     28 H28        -6.3481   -2.0184   52.3607 H       1  ZINC000541252362    0.0800
     29 H29        -7.5354   -2.0132   51.0347 H       1  ZINC000541252362    0.0900
     30 H30        -5.8380   -1.5864   50.7110 H       1  ZINC000541252362    0.0900
     31 H31        -9.0576   -0.1612   52.1958 H       1  ZINC000541252362    0.2200
     32 H32        -8.1090    4.3328   52.3449 H       1  ZINC000541252362    0.1300
     33 H33        -7.2037    6.6158   52.4714 H       1  ZINC000541252362    0.1300
     34 H34        -4.7850    6.9998   52.2520 H       1  ZINC000541252362    0.1300
     35 H35        -2.4203    5.4174   52.6505 H       1  ZINC000541252362    0.4100
     36 H36        -0.6801    6.0510   49.8627 H       1  ZINC000541252362    0.1200
     37 H37        -0.4354    5.4672   51.5263 H       1  ZINC000541252362    0.1200
     38 H38         0.0260    2.7710   51.8095 H       1  ZINC000541252362    0.1900
     39 H39         1.2779    0.3201   51.0598 H       1  ZINC000541252362    0.1800
     40 H40         2.1698    0.0616   46.9056 H       1  ZINC000541252362    0.1600
     41 H41        -4.1493    2.7985   51.7838 H       1  ZINC000541252362    0.1500
@<TRIPOS>BOND
     1     1     2    1
     2     1    28    1
     3     1    29    1
     4     1    30    1
     5     2    27    1
     6     2     3    1
     7     3     4    2
     8     3    31    1
     9     4     5    1
    10     5     6    1
    11     5    27    2
    12     6    26   ar
    13     6     7   ar
    14     7     8   ar
    15     7    32    1
    16     8     9   ar
    17     8    33    1
    18     9    10   ar
    19     9    34    1
    20    10    11    1
    21    10    26   ar
    22    11    12   am
    23    11    35    1
    24    12    13    2
    25    12    14    1
    26    14    15    1
    27    14    36    1
    28    14    37    1
    29    15    25    1
    30    15    16    2
    31    16    17    1
    32    16    38    1
    33    17    24    1
    34    17    18    1
    35    18    19    2
    36    18    39    1
    37    19    20    1
    38    19    21    1
    39    21    22    2
    40    21    40    1
    41    22    23    1
    42    22    24    1
    43    24    25    2
    44    26    41    1
@<TRIPOS>SUBSTRUCTURE
     1 ZINC000541252362        1 TEMP              0 ****  ****    0 ROOT


##########                                Name:    ZINC000338927927
##########                DOCK_Rotatable_Bonds:                   9
##########                         Heavy_Atoms:                  23
##########                    Molecular_Weight:             336.286
##########                DOCK_Rotatable_Bonds:                   9
##########                       Formal_Charge:         -0.00999999
##########                     HBond_Acceptors:                   9
##########                        HBond_Donors:                   2
##########                         Heavy_Atoms:                  23
##########                          Grid_Score:          -28.544994
##########                     Grid_vdw_energy:          -27.435755
##########                      Grid_es_energy:           -1.109239
##########           Internal_energy_repulsive:            8.983448

@<TRIPOS>MOLECULE
ZINC000338927927
 39 39 1 0 0
SMALL
USER_CHARGES


@<TRIPOS>ATOM
      1 C1         -6.3682    1.9941   50.2360 C.3     1  <0>        -0.1600
      2 C2         -5.2954    2.0976   51.3220 C.3     1  <0>        -0.1100
      3 C3         -4.3513    3.2568   50.9974 C.3     1  <0>        -0.1000
      4 H4         -4.9118    4.0580   50.5157 H       1  <0>         0.1400
      5 C5         -3.2653    2.7757   50.0700 C.2     1  <0>         0.5200
      6 O6         -3.4171    1.7518   49.4379 O.2     1  <0>        -0.4700
      7 N7         -2.1251    3.4831   49.9430 N.am    1  <0>        -0.6700
      8 C8         -1.1168    3.0364   49.0820 C.ar    1  <0>         0.2200
      9 C9         -1.0980    3.4547   47.7580 C.ar    1  <0>        -0.2300
     10 C10        -0.1007    3.0132   46.9056 C.ar    1  <0>         0.1700
     11 F11        -0.0844    3.4214   45.6179 F       1  <0>        -0.1300
     12 C12         0.8797    2.1549   47.3708 C.ar    1  <0>        -0.2500
     13 C13         0.8647    1.7340   48.6948 C.ar    1  <0>         0.2600
     14 N14         1.8544    0.8672   49.1639 N.pl3   1  <0>        -0.7400
     15 C15         2.2329   -0.3078   48.3750 C.3     1  <0>         0.0800
     16 C16         2.4262   -1.5063   49.3059 C.3     1  <0>         0.4500
     17 F17         3.7460   -1.5287   49.7695 F       1  <0>        -0.1800
     18 F18         1.5520   -1.3985   50.3929 F       1  <0>        -0.1700
     19 F19         2.1575   -2.6880   48.6068 F       1  <0>        -0.1800
     20 C20        -0.1314    2.1797   49.5522 C.ar    1  <0>        -0.2000
     21 C21        -3.7323    3.7723   52.2710 C.2     1  <0>         0.4600
     22 O22        -4.2314    4.7082   52.8496 O.2     1  <0>        -0.4600
     23 O23        -2.6264    3.1918   52.7626 O.3     1  <0>        -0.3500
     24 C24        -2.1097    3.7129   54.0154 C.3     1  <0>         0.0300
     25 H25        -5.8928    1.8162   49.2714 H       1  <0>         0.0600
     26 H26        -7.0409    1.1682   50.4673 H       1  <0>         0.0600
     27 H27        -6.9352    2.9241   50.1956 H       1  <0>         0.0800
     28 H28        -5.7709    2.2753   52.2866 H       1  <0>         0.0800
     29 H29        -4.7284    1.1675   51.3623 H       1  <0>         0.0800
     30 H30        -2.0037    4.3020   50.4485 H       1  <0>         0.4200
     31 H31        -1.8624    4.1246   47.3929 H       1  <0>         0.1400
     32 H32         1.6569    1.8116   46.7041 H       1  <0>         0.1400
     33 H33         2.2909    1.0432   50.0119 H       1  <0>         0.4100
     34 H34         1.4459   -0.5306   47.6545 H       1  <0>         0.1100
     35 H35         3.1638   -0.1052   47.8453 H       1  <0>         0.1100
     36 H36        -0.1446    1.8536   50.5816 H       1  <0>         0.1500
     37 H37        -1.2164    3.1566   54.2996 H       1  <0>         0.1000
     38 H38        -1.8582    4.7666   53.8946 H       1  <0>         0.0600
     39 H39        -2.8663    3.6068   54.7928 H       1  <0>         0.0600
@<TRIPOS>BOND
     1     1     2    1
     2     1    25    1
     3     1    26    1
     4     1    27    1
     5     2     3    1
     6     2    28    1
     7     2    29    1
     8     3     4    1
     9     3     5    1
    10     3    21    1
    11     5     6    2
    12     5     7   am
    13     7     8    1
    14     7    30    1
    15     8    20   ar
    16     8     9   ar
    17     9    10   ar
    18     9    31    1
    19    10    11    1
    20    10    12   ar
    21    12    13   ar
    22    12    32    1
    23    13    14    1
    24    13    20   ar
    25    14    15    1
    26    14    33    1
    27    15    16    1
    28    15    34    1
    29    15    35    1
    30    16    17    1
    31    16    18    1
    32    16    19    1
    33    20    36    1
    34    21    22    2
    35    21    23    1
    36    23    24    1
    37    24    37    1
    38    24    38    1
    39    24    39    1
@<TRIPOS>SUBSTRUCTURE
     1 <0>         1 TEMP              0 ****  ****    0 ROOT


##########                                Name:    ZINC001271977984
##########                DOCK_Rotatable_Bonds:                   7
##########                         Heavy_Atoms:                  24
##########                    Molecular_Weight:             328.371
##########                DOCK_Rotatable_Bonds:                   7
##########                       Formal_Charge:           0.0200001
##########                     HBond_Acceptors:                   7
##########                        HBond_Donors:                   0
##########                         Heavy_Atoms:                  24
##########                          Grid_Score:          -28.544720
##########                     Grid_vdw_energy:          -27.269779
##########                      Grid_es_energy:           -1.274941
##########           Internal_energy_repulsive:           16.241850

@<TRIPOS>MOLECULE
ZINC001271977984
 44 46 1 0 0
SMALL
USER_CHARGES


@<TRIPOS>ATOM
      1 C1         -0.2925    1.1539   46.6637 C.3     1  ZINC001271977984   -0.1800
      2 C2         -0.5304    2.6625   46.7568 C.3     1  ZINC001271977984    0.1700
      3 H3         -0.9464    3.0234   45.8163 H       1  ZINC001271977984    0.1100
      4 C4         -1.4965    2.9505   47.8769 C.2     1  ZINC001271977984    0.2700
      5 N5         -2.2495    2.0632   48.4543 N.2     1  ZINC001271977984   -0.4700
      6 C6         -2.9896    2.6762   49.4175 C.ar    1  ZINC001271977984    0.0200
      7 C7         -3.9455    2.2305   50.3313 C.ar    1  ZINC001271977984   -0.0600
      8 C8         -4.5295    3.1255   51.2000 C.ar    1  ZINC001271977984   -0.1200
      9 C9         -4.1733    4.4655   51.1721 C.ar    1  ZINC001271977984   -0.0900
     10 C10        -3.2302    4.9202   50.2739 C.ar    1  ZINC001271977984   -0.0900
     11 C11        -2.6320    4.0332   49.3924 C.ar    1  ZINC001271977984    0.0100
     12 O12        -1.6977    4.1594   48.4244 O.3     1  ZINC001271977984   -0.2100
     13 N13         0.7440    3.3436   47.0220 N.3     1  ZINC001271977984   -0.5300
     14 C14         0.7049    4.7348   46.5520 C.3     1  ZINC001271977984    0.0000
     15 C15         1.0885    3.2793   48.4485 C.3     1  ZINC001271977984    0.0400
     16 C16         2.5960    3.0661   48.5999 C.3     1  ZINC001271977984    0.1200
     17 N17         2.8420    1.8231   49.3354 N.am    1  ZINC001271977984   -0.6000
     18 C18         2.4680    1.7219   50.7483 C.3     1  ZINC001271977984    0.0800
     19 C19         3.4122    0.7729   48.7123 C.2     1  ZINC001271977984    0.6000
     20 O20         3.7226    0.8571   47.5395 O.2     1  ZINC001271977984   -0.5300
     21 C21         3.6597   -0.4777   49.4524 C.2     1  ZINC001271977984   -0.0800
     22 C22         4.8746   -1.0048   49.7658 C.2     1  ZINC001271977984    0.0200
     23 O23         4.6453   -2.1432   50.4397 O.3     1  ZINC001271977984   -0.2000
     24 C24         3.3192   -2.3120   50.5385 C.2     1  ZINC001271977984    0.1800
     25 N25         2.7164   -1.3193   49.9559 N.2     1  ZINC001271977984   -0.4600
     26 H26         0.4063    0.9456   45.8535 H       1  ZINC001271977984    0.0800
     27 H27         0.1236    0.7930   47.6042 H       1  ZINC001271977984    0.0800
     28 H28        -1.2380    0.6485   46.4669 H       1  ZINC001271977984    0.0700
     29 H29        -4.2265    1.1880   50.3568 H       1  ZINC001271977984    0.1400
     30 H30        -5.2696    2.7816   51.9074 H       1  ZINC001271977984    0.1400
     31 H31        -4.6380    5.1581   51.8582 H       1  ZINC001271977984    0.1400
     32 H32        -2.9579    5.9652   50.2579 H       1  ZINC001271977984    0.1400
     33 H33        -0.0917    5.2706   47.0683 H       1  ZINC001271977984    0.0300
     34 H34         1.6606    5.2157   46.7606 H       1  ZINC001271977984    0.0700
     35 H35         0.5169    4.7506   45.4784 H       1  ZINC001271977984    0.1100
     36 H36         0.8030    4.2127   48.9337 H       1  ZINC001271977984    0.0500
     37 H37         0.5557    2.4501   48.9140 H       1  ZINC001271977984    0.0800
     38 H38         3.0546    3.0013   47.6133 H       1  ZINC001271977984    0.0900
     39 H39         3.0282    3.9037   49.1473 H       1  ZINC001271977984    0.0900
     40 H40         1.4814    1.2659   50.8312 H       1  ZINC001271977984    0.0600
     41 H41         3.1980    1.1066   51.2741 H       1  ZINC001271977984    0.0900
     42 H42         2.4463    2.7179   51.1907 H       1  ZINC001271977984    0.0700
     43 H43         5.8395   -0.5872   49.5191 H       1  ZINC001271977984    0.2300
     44 H44         2.8291   -3.1407   51.0280 H       1  ZINC001271977984    0.2600
@<TRIPOS>BOND
     1     1     2    1
     2     1    26    1
     3     1    27    1
     4     1    28    1
     5     2     3    1
     6     2     4    1
     7     2    13    1
     8     4    12    1
     9     4     5    2
    10     5     6    1
    11     6    11   ar
    12     6     7   ar
    13     7     8   ar
    14     7    29    1
    15     8     9   ar
    16     8    30    1
    17     9    10   ar
    18     9    31    1
    19    10    11   ar
    20    10    32    1
    21    11    12    1
    22    13    14    1
    23    13    15    1
    24    14    33    1
    25    14    34    1
    26    14    35    1
    27    15    16    1
    28    15    36    1
    29    15    37    1
    30    16    17    1
    31    16    38    1
    32    16    39    1
    33    17    18    1
    34    17    19   am
    35    18    40    1
    36    18    41    1
    37    18    42    1
    38    19    20    2
    39    19    21    1
    40    21    25    1
    41    21    22    2
    42    22    23    1
    43    22    43    1
    44    23    24    1
    45    24    25    2
    46    24    44    1
@<TRIPOS>SUBSTRUCTURE
     1 ZINC001271977984        1 TEMP              0 ****  ****    0 ROOT


##########                                Name:    ZINC000609484313
##########                DOCK_Rotatable_Bonds:                  10
##########                         Heavy_Atoms:                  26
##########                    Molecular_Weight:             361.487
##########                DOCK_Rotatable_Bonds:                  10
##########                       Formal_Charge:          -0.0200004
##########                     HBond_Acceptors:                   7
##########                        HBond_Donors:                   1
##########                         Heavy_Atoms:                  26
##########                          Grid_Score:          -28.542803
##########                     Grid_vdw_energy:          -27.395086
##########                      Grid_es_energy:           -1.147717
##########           Internal_energy_repulsive:           33.330643

@<TRIPOS>MOLECULE
ZINC000609484313
 57 58 1 0 0
SMALL
USER_CHARGES


@<TRIPOS>ATOM
      1 C1        -11.3911   -0.7502   53.4680 C.3     1  ZINC000609484313   -0.1500
      2 C2        -10.0175   -0.6107   52.8087 C.3     1  ZINC000609484313   -0.1300
      3 C3         -9.4870    0.8072   53.0304 C.3     1  ZINC000609484313   -0.1100
      4 C4         -8.0489    0.8998   52.5164 C.3     1  ZINC000609484313   -0.1100
      5 C5         -7.6972    2.3641   52.2461 C.3     1  ZINC000609484313    0.0800
      6 H6         -8.2543    2.7174   51.3784 H       1  ZINC000609484313    0.1200
      7 C7         -8.0583    3.1977   53.4484 C.2     1  ZINC000609484313    0.4900
      8 O8         -8.9214    4.0453   53.3617 O.2     1  ZINC000609484313   -0.5000
      9 N9         -7.4219    3.0015   54.6202 N.am    1  ZINC000609484313   -0.6300
     10 C10        -7.7573    3.7721   55.7336 C.2     1  ZINC000609484313    0.2400
     11 N11        -8.5923    4.7773   55.7696 N.2     1  ZINC000609484313   -0.3900
     12 O12        -8.6739    5.2454   56.8815 O.3     1  ZINC000609484313    0.1000
     13 C13        -7.8856    4.5984   57.7521 C.2     1  ZINC000609484313   -0.0200
     14 C14        -7.7275    4.8999   59.2201 C.3     1  ZINC000609484313   -0.0800
     15 C15        -7.2648    3.6182   57.0569 C.2     1  ZINC000609484313   -0.2300
     16 N16        -6.2565    2.4812   51.9839 N.3     1  ZINC000609484313   -0.5000
     17 C17        -5.8305    3.8876   52.0015 C.3     1  ZINC000609484313    0.0400
     18 C18        -4.3147    3.9613   51.8040 C.3     1  ZINC000609484313    0.0500
     19 N19        -3.9576    3.3217   50.5301 N.3     1  ZINC000609484313   -0.5100
     20 C20        -2.5169    3.4388   50.2678 C.3     1  ZINC000609484313    0.1800
     21 H21        -1.9602    2.9867   51.0887 H       1  ZINC000609484313    0.1200
     22 C22        -2.1888    2.7451   49.0117 C.1     1  ZINC000609484313    0.1700
     23 N23        -1.9356    2.2097   48.0423 N.1     1  ZINC000609484313   -0.4200
     24 C24        -2.1388    4.9165   50.1481 C.3     1  ZINC000609484313   -0.0800
     25 C25        -1.3638    5.3473   51.3949 C.3     1  ZINC000609484313   -0.1400
     26 C26        -1.2651    5.1206   48.9087 C.3     1  ZINC000609484313   -0.1500
     27 C27        -4.3835    1.9153   50.5125 C.3     1  ZINC000609484313    0.0500
     28 C28        -5.8994    1.8416   50.7099 C.3     1  ZINC000609484313    0.0400
     29 H29       -11.3019   -0.5588   54.5373 H       1  ZINC000609484313    0.0500
     30 H30       -12.0808   -0.0309   53.0265 H       1  ZINC000609484313    0.0500
     31 H31       -11.7690   -1.7603   53.3100 H       1  ZINC000609484313    0.0500
     32 H32        -9.3278   -1.3299   53.2503 H       1  ZINC000609484313    0.0600
     33 H33       -10.1067   -0.8021   51.7393 H       1  ZINC000609484313    0.0600
     34 H34       -10.1125    1.5178   52.4902 H       1  ZINC000609484313    0.0800
     35 H35        -9.5080    1.0406   54.0950 H       1  ZINC000609484313    0.0600
     36 H36        -7.3685    0.4951   53.2655 H       1  ZINC000609484313    0.0700
     37 H37        -7.9554    0.3274   51.5936 H       1  ZINC000609484313    0.0800
     38 H38        -6.7308    2.3245   54.6893 H       1  ZINC000609484313    0.4200
     39 H39        -8.3623    5.7445   59.4879 H       1  ZINC000609484313    0.0800
     40 H40        -8.0191    4.0267   59.8037 H       1  ZINC000609484313    0.0900
     41 H41        -6.6868    5.1464   59.4304 H       1  ZINC000609484313    0.0900
     42 H42        -6.5540    2.8916   57.4218 H       1  ZINC000609484313    0.1900
     43 H43        -6.3288    4.4285   51.1970 H       1  ZINC000609484313    0.0800
     44 H44        -6.0948    4.3356   52.9595 H       1  ZINC000609484313    0.0800
     45 H45        -4.0004    5.0049   51.7878 H       1  ZINC000609484313    0.0900
     46 H46        -3.8157    3.4436   52.6232 H       1  ZINC000609484313    0.0400
     47 H47        -3.0440    5.5169   50.0574 H       1  ZINC000609484313    0.0800
     48 H48        -0.4585    4.7468   51.4856 H       1  ZINC000609484313    0.0600
     49 H49        -1.0944    6.4001   51.3096 H       1  ZINC000609484313    0.0500
     50 H50        -1.9861    5.2020   52.2779 H       1  ZINC000609484313    0.0700
     51 H51        -0.9191    6.1536   48.8743 H       1  ZINC000609484313    0.0700
     52 H52        -0.4063    4.4510   48.9553 H       1  ZINC000609484313    0.0600
     53 H53        -1.8477    4.9025   48.0136 H       1  ZINC000609484313    0.0500
     54 H54        -4.1193    1.4673   49.5546 H       1  ZINC000609484313    0.0900
     55 H55        -3.8852    1.3744   51.3170 H       1  ZINC000609484313    0.0400
     56 H56        -6.2137    0.7981   50.7262 H       1  ZINC000609484313    0.0800
     57 H57        -6.3984    2.3594   49.8907 H       1  ZINC000609484313    0.0800
@<TRIPOS>BOND
     1     1     2    1
     2     1    29    1
     3     1    30    1
     4     1    31    1
     5     2     3    1
     6     2    32    1
     7     2    33    1
     8     3     4    1
     9     3    34    1
    10     3    35    1
    11     4     5    1
    12     4    36    1
    13     4    37    1
    14     5     6    1
    15     5     7    1
    16     5    16    1
    17     7     8    2
    18     7     9   am
    19     9    10    1
    20     9    38    1
    21    10    15    1
    22    10    11    2
    23    11    12    1
    24    12    13    1
    25    13    14    1
    26    13    15    2
    27    14    39    1
    28    14    40    1
    29    14    41    1
    30    15    42    1
    31    16    28    1
    32    16    17    1
    33    17    18    1
    34    17    43    1
    35    17    44    1
    36    18    19    1
    37    18    45    1
    38    18    46    1
    39    19    20    1
    40    19    27    1
    41    20    21    1
    42    20    22    1
    43    20    24    1
    44    22    23    3
    45    24    25    1
    46    24    26    1
    47    24    47    1
    48    25    48    1
    49    25    49    1
    50    25    50    1
    51    26    51    1
    52    26    52    1
    53    26    53    1
    54    27    28    1
    55    27    54    1
    56    27    55    1
    57    28    56    1
    58    28    57    1
@<TRIPOS>SUBSTRUCTURE
     1 ZINC000609484313        1 TEMP              0 ****  ****    0 ROOT


##########                                Name:    ZINC000863246516
##########                DOCK_Rotatable_Bonds:                   5
##########                         Heavy_Atoms:                  25
##########                    Molecular_Weight:             356.489
##########                DOCK_Rotatable_Bonds:                   5
##########                       Formal_Charge:         -0.00999938
##########                     HBond_Acceptors:                   5
##########                        HBond_Donors:                   0
##########                         Heavy_Atoms:                  25
##########                          Grid_Score:          -28.497660
##########                     Grid_vdw_energy:          -27.571722
##########                      Grid_es_energy:           -0.925938
##########           Internal_energy_repulsive:           16.475555

@<TRIPOS>MOLECULE
ZINC000863246516
 49 52 1 0 0
SMALL
USER_CHARGES


@<TRIPOS>ATOM
      1 C1          2.1051   -0.2283   49.8988 C.3     1  ZINC000863246516   -0.0600
      2 C2          1.6058    0.8597   48.9834 C.2     1  ZINC000863246516   -0.2000
      3 C3          1.2017    2.0753   49.3249 C.2     1  ZINC000863246516    0.0900
      4 C4          1.1971    2.5326   50.7608 C.3     1  ZINC000863246516   -0.1000
      5 N5          0.7911    2.8912   48.3131 N.am    1  ZINC000863246516   -0.5300
      6 C6          0.3246    4.2551   48.5746 C.3     1  ZINC000863246516    0.1200
      7 C7         -1.1781    4.3415   48.3002 C.3     1  ZINC000863246516   -0.1500
      8 C8         -1.9184    3.4653   49.2777 C.2     1  ZINC000863246516    0.5400
      9 O9         -2.1995    2.3244   48.9772 O.2     1  ZINC000863246516   -0.5300
     10 N10        -2.2681    3.9496   50.4858 N.am    1  ZINC000863246516   -0.6100
     11 C11        -1.9886    5.3065   50.9694 C.3     1  ZINC000863246516    0.1100
     12 C12        -2.9401    5.5595   52.1543 C.3     1  ZINC000863246516   -0.1300
     13 H13        -3.8112    6.1751   51.9308 H       1  ZINC000863246516    0.1000
     14 C14        -2.2003    5.8716   53.4657 C.3     1  ZINC000863246516   -0.1200
     15 C15        -1.9352    4.3628   53.5920 C.3     1  ZINC000863246516   -0.0600
     16 H16        -1.0128    4.0403   53.1090 H       1  ZINC000863246516    0.1000
     17 C17        -2.0705    3.8428   55.0000 C.ar    1  ZINC000863246516   -0.0700
     18 C18        -1.0472    3.1055   55.5658 C.ar    1  ZINC000863246516   -0.1200
     19 C19        -1.1713    2.6285   56.8573 C.ar    1  ZINC000863246516   -0.1200
     20 C20        -2.3185    2.8891   57.5832 C.ar    1  ZINC000863246516   -0.1200
     21 C21        -3.3414    3.6272   57.0176 C.ar    1  ZINC000863246516   -0.1200
     22 C22        -3.2155    4.1079   55.7276 C.ar    1  ZINC000863246516   -0.1200
     23 C23        -3.2038    4.1415   52.7195 C.3     1  ZINC000863246516   -0.1100
     24 H24        -4.1363    3.9971   53.2651 H       1  ZINC000863246516    0.1200
     25 C25        -2.9930    3.2049   51.5206 C.3     1  ZINC000863246516    0.1200
     26 C26         0.8324    2.3933   47.0671 C.2     1  ZINC000863246516    0.4800
     27 O27         0.5101    2.9612   46.0386 O.2     1  ZINC000863246516   -0.4700
     28 S28         1.4409    0.7896   47.2202 S.3     1  ZINC000863246516    0.0100
     29 H29         2.3646   -1.1080   49.3098 H       1  ZINC000863246516    0.0700
     30 H30         2.9870    0.1235   50.4341 H       1  ZINC000863246516    0.0800
     31 H31         1.3249   -0.4875   50.6145 H       1  ZINC000863246516    0.0800
     32 H32         1.5616    1.7280   51.3995 H       1  ZINC000863246516    0.0900
     33 H33         1.8450    3.4027   50.8671 H       1  ZINC000863246516    0.0800
     34 H34         0.1815    2.7978   51.0544 H       1  ZINC000863246516    0.0800
     35 H35         0.5192    4.5123   49.6158 H       1  ZINC000863246516    0.1000
     36 H36         0.8535    4.9510   47.9235 H       1  ZINC000863246516    0.1000
     37 H37        -1.5096    5.3736   48.4142 H       1  ZINC000863246516    0.1000
     38 H38        -1.3818    4.0046   47.2837 H       1  ZINC000863246516    0.1000
     39 H39        -0.9527    5.3784   51.3010 H       1  ZINC000863246516    0.0700
     40 H40        -2.1784    6.0311   50.1775 H       1  ZINC000863246516    0.0800
     41 H41        -1.2953    6.4629   53.3257 H       1  ZINC000863246516    0.0800
     42 H42        -2.8479    6.2674   54.2480 H       1  ZINC000863246516    0.0900
     43 H43        -0.1509    2.9019   54.9988 H       1  ZINC000863246516    0.1200
     44 H44        -0.3721    2.0519   57.2991 H       1  ZINC000863246516    0.1200
     45 H45        -2.4157    2.5159   58.5919 H       1  ZINC000863246516    0.1200
     46 H46        -4.2379    3.8305   57.5845 H       1  ZINC000863246516    0.1200
     47 H47        -4.0148    4.6844   55.2858 H       1  ZINC000863246516    0.1200
     48 H48        -3.9580    2.8661   51.1434 H       1  ZINC000863246516    0.0700
     49 H49        -2.3939    2.3464   51.8243 H       1  ZINC000863246516    0.0700
@<TRIPOS>BOND
     1     1     2    1
     2     1    29    1
     3     1    30    1
     4     1    31    1
     5     2    28    1
     6     2     3    2
     7     3     4    1
     8     3     5    1
     9     4    32    1
    10     4    33    1
    11     4    34    1
    12     5     6    1
    13     5    26   am
    14     6     7    1
    15     6    35    1
    16     6    36    1
    17     7     8    1
    18     7    37    1
    19     7    38    1
    20     8     9    2
    21     8    10   am
    22    10    25    1
    23    10    11    1
    24    11    12    1
    25    11    39    1
    26    11    40    1
    27    12    13    1
    28    12    23    1
    29    12    14    1
    30    14    15    1
    31    14    41    1
    32    14    42    1
    33    15    16    1
    34    15    17    1
    35    15    23    1
    36    17    22   ar
    37    17    18   ar
    38    18    19   ar
    39    18    43    1
    40    19    20   ar
    41    19    44    1
    42    20    21   ar
    43    20    45    1
    44    21    22   ar
    45    21    46    1
    46    22    47    1
    47    23    24    1
    48    23    25    1
    49    25    48    1
    50    25    49    1
    51    26    27    2
    52    26    28    1
@<TRIPOS>SUBSTRUCTURE
     1 ZINC000863246516        1 TEMP              0 ****  ****    0 ROOT


##########                                Name:    ZINC000028372981
##########                DOCK_Rotatable_Bonds:                   7
##########                         Heavy_Atoms:                  28
##########                    Molecular_Weight:             380.443
##########                DOCK_Rotatable_Bonds:                   7
##########                       Formal_Charge:         1.78814e-07
##########                     HBond_Acceptors:                   6
##########                        HBond_Donors:                   1
##########                         Heavy_Atoms:                  28
##########                          Grid_Score:          -28.407995
##########                     Grid_vdw_energy:          -27.469286
##########                      Grid_es_energy:           -0.938709
##########           Internal_energy_repulsive:           15.531526

@<TRIPOS>MOLECULE
ZINC000028372981
 52 54 1 0 0
SMALL
USER_CHARGES


@<TRIPOS>ATOM
      1 C1         -0.5427    2.4936   48.0997 C.3     1  ZINC000028372981   -0.1800
      2 C2         -1.9404    2.4632   48.6624 C.2     1  ZINC000028372981    0.5200
      3 O3         -2.8607    2.0673   47.9789 O.2     1  ZINC000028372981   -0.5100
      4 N4         -2.1676    2.8760   49.9251 N.am    1  ZINC000028372981   -0.5500
      5 C5         -1.1390    3.3717   50.8431 C.3     1  ZINC000028372981    0.1000
      6 C6         -1.8874    3.7116   52.1424 C.3     1  ZINC000028372981   -0.0900
      7 C7         -3.3312    3.3702   51.8483 C.ar    1  ZINC000028372981   -0.1500
      8 C8         -4.4583    3.4701   52.6329 C.ar    1  ZINC000028372981    0.0000
      9 C9         -5.7007    3.0793   52.1254 C.ar    1  ZINC000028372981   -0.1600
     10 C10        -6.9102    3.1794   52.9630 C.2     1  ZINC000028372981    0.5200
     11 O11        -7.8345    3.8865   52.6133 O.2     1  ZINC000028372981   -0.5000
     12 O12        -6.9904    2.4869   54.1161 O.3     1  ZINC000028372981   -0.3200
     13 C13        -7.9345    2.9671   55.1091 C.3     1  ZINC000028372981    0.0700
     14 H14        -8.1298    4.0265   54.9424 H       1  ZINC000028372981    0.1200
     15 C15        -7.3470    2.7710   56.5082 C.3     1  ZINC000028372981   -0.1700
     16 C16        -9.2230    2.1943   54.9924 C.2     1  ZINC000028372981    0.5200
     17 O17       -10.1831    2.5114   55.6623 O.2     1  ZINC000028372981   -0.4900
     18 N18        -9.3085    1.1509   54.1436 N.am    1  ZINC000028372981   -0.6600
     19 C19       -10.5049    0.4334   54.0353 C.ar    1  ZINC000028372981    0.1500
     20 C20       -10.8838   -0.4438   55.0427 C.ar    1  ZINC000028372981   -0.1300
     21 C21       -12.0657   -1.1503   54.9330 C.ar    1  ZINC000028372981   -0.1000
     22 C22       -12.8713   -0.9842   53.8217 C.ar    1  ZINC000028372981   -0.1300
     23 C23       -12.4971   -0.1109   52.8167 C.ar    1  ZINC000028372981   -0.0700
     24 C24       -13.3785    0.0673   51.6075 C.3     1  ZINC000028372981   -0.1200
     25 C25       -11.3163    0.5976   52.9199 C.ar    1  ZINC000028372981   -0.1200
     26 C26       -10.9087    1.5482   51.8240 C.3     1  ZINC000028372981   -0.1200
     27 C27        -5.7891    2.5984   50.8157 C.ar    1  ZINC000028372981   -0.0200
     28 C28        -4.6601    2.5071   50.0382 C.ar    1  ZINC000028372981   -0.1800
     29 C29        -3.4149    2.8928   50.5464 C.ar    1  ZINC000028372981    0.1900
     30 H30         0.1064    1.8603   48.7045 H       1  ZINC000028372981    0.1000
     31 H31        -0.5560    2.1255   47.0738 H       1  ZINC000028372981    0.1000
     32 H32        -0.1675    3.5169   48.1138 H       1  ZINC000028372981    0.1000
     33 H33        -0.3930    2.5988   51.0278 H       1  ZINC000028372981    0.0900
     34 H34        -0.6662    4.2646   50.4344 H       1  ZINC000028372981    0.0900
     35 H35        -1.5132    3.1048   52.9669 H       1  ZINC000028372981    0.1000
     36 H36        -1.7849    4.7718   52.3741 H       1  ZINC000028372981    0.1000
     37 H37        -4.3817    3.8466   53.6422 H       1  ZINC000028372981    0.1400
     38 H38        -7.1517    1.7116   56.6750 H       1  ZINC000028372981    0.0800
     39 H39        -6.4150    3.3299   56.5926 H       1  ZINC000028372981    0.0800
     40 H40        -8.0557    3.1315   57.2537 H       1  ZINC000028372981    0.0800
     41 H41        -8.5407    0.8974   53.6079 H       1  ZINC000028372981    0.4100
     42 H42       -10.2571   -0.5703   55.9133 H       1  ZINC000028372981    0.1400
     43 H43       -12.3609   -1.8327   55.7162 H       1  ZINC000028372981    0.1300
     44 H44       -13.7952   -1.5375   53.7384 H       1  ZINC000028372981    0.1200
     45 H45       -14.0903    0.8721   51.7920 H       1  ZINC000028372981    0.0700
     46 H46       -12.7634    0.3174   50.7432 H       1  ZINC000028372981    0.0700
     47 H47       -13.9197   -0.8586   51.4126 H       1  ZINC000028372981    0.0700
     48 H48       -11.3094    2.5397   52.0354 H       1  ZINC000028372981    0.0700
     49 H49        -9.8211    1.5992   51.7731 H       1  ZINC000028372981    0.0600
     50 H50       -11.3009    1.1935   50.8709 H       1  ZINC000028372981    0.0800
     51 H51        -6.7460    2.2986   50.4148 H       1  ZINC000028372981    0.1500
     52 H52        -4.7343    2.1344   49.0272 H       1  ZINC000028372981    0.1500
@<TRIPOS>BOND
     1     1     2    1
     2     1    30    1
     3     1    31    1
     4     1    32    1
     5     2     3    2
     6     2     4   am
     7     4    29    1
     8     4     5    1
     9     5     6    1
    10     5    33    1
    11     5    34    1
    12     6     7    1
    13     6    35    1
    14     6    36    1
    15     7    29   ar
    16     7     8   ar
    17     8     9   ar
    18     8    37    1
    19     9    10    1
    20     9    27   ar
    21    10    11    2
    22    10    12    1
    23    12    13    1
    24    13    14    1
    25    13    15    1
    26    13    16    1
    27    15    38    1
    28    15    39    1
    29    15    40    1
    30    16    17    2
    31    16    18   am
    32    18    19    1
    33    18    41    1
    34    19    25   ar
    35    19    20   ar
    36    20    21   ar
    37    20    42    1
    38    21    22   ar
    39    21    43    1
    40    22    23   ar
    41    22    44    1
    42    23    24    1
    43    23    25   ar
    44    24    45    1
    45    24    46    1
    46    24    47    1
    47    25    26    1
    48    26    48    1
    49    26    49    1
    50    26    50    1
    51    27    28   ar
    52    27    51    1
    53    28    29   ar
    54    28    52    1
@<TRIPOS>SUBSTRUCTURE
     1 ZINC000028372981        1 TEMP              0 ****  ****    0 ROOT


##########                                Name:    ZINC000573150059
##########                DOCK_Rotatable_Bonds:                   7
##########                         Heavy_Atoms:                  23
##########                    Molecular_Weight:             378.269
##########                DOCK_Rotatable_Bonds:                   7
##########                       Formal_Charge:        -2.98023e-07
##########                     HBond_Acceptors:                   5
##########                        HBond_Donors:                   2
##########                         Heavy_Atoms:                  23
##########                          Grid_Score:          -28.379776
##########                     Grid_vdw_energy:          -28.396690
##########                      Grid_es_energy:            0.016914
##########           Internal_energy_repulsive:            9.087453

@<TRIPOS>MOLECULE
ZINC000573150059
 43 44 1 0 0
SMALL
USER_CHARGES


@<TRIPOS>ATOM
      1 C1        -10.9396   -1.6961   56.6699 C.3     1  ZINC000573150059    0.0300
      2 O2        -10.7147   -0.7923   55.5862 O.3     1  ZINC000573150059   -0.3600
      3 C3        -10.6007   -1.4291   54.3121 C.3     1  ZINC000573150059    0.0700
      4 H4         -9.9046   -2.2647   54.3846 H       1  ZINC000573150059    0.0900
      5 C5        -11.9732   -1.9452   53.8752 C.3     1  ZINC000573150059   -0.1700
      6 C6        -10.0910   -0.4373   53.2985 C.2     1  ZINC000573150059    0.5100
      7 O7        -10.5276   -0.4479   52.1669 O.2     1  ZINC000573150059   -0.4900
      8 N8         -9.1500    0.4615   53.6492 N.am    1  ZINC000573150059   -0.6700
      9 C9         -8.6767    1.3824   52.7080 C.ar    1  ZINC000573150059    0.1900
     10 C10        -9.5366    2.3326   52.1719 C.ar    1  ZINC000573150059   -0.2000
     11 C11        -9.0704    3.2425   51.2423 C.ar    1  ZINC000573150059   -0.0500
     12 C12        -7.7483    3.2110   50.8435 C.ar    1  ZINC000573150059   -0.2200
     13 C13        -6.8826    2.2632   51.3763 C.ar    1  ZINC000573150059    0.2400
     14 N14        -5.5459    2.2320   50.9730 N.pl3   1  ZINC000573150059   -0.7300
     15 C15        -4.7519    3.4632   50.9727 C.3     1  ZINC000573150059    0.2000
     16 H16        -5.3979    4.3120   50.7482 H       1  ZINC000573150059    0.1000
     17 C17        -4.1131    3.6584   52.3492 C.3     1  ZINC000573150059   -0.1700
     18 C18        -3.6713    3.3639   49.9270 C.ar    1  ZINC000573150059    0.1400
     19 C19        -2.8016    4.4217   49.7414 C.ar    1  ZINC000573150059   -0.1600
     20 C20        -1.8105    4.3206   48.7771 C.ar    1  ZINC000573150059   -0.0400
     21 C21        -1.7312    3.1533   48.0319 C.ar    1  ZINC000573150059   -0.1500
     22 Br22       -0.4013    2.9541   46.7025 Br      1  ZINC000573150059   -0.0300
     23 C23        -2.6372    2.1366   48.2743 C.ar    1  ZINC000573150059    0.1400
     24 N24        -3.5636    2.2666   49.2035 N.ar    1  ZINC000573150059   -0.4700
     25 C25        -7.3468    1.3511   52.3135 C.ar    1  ZINC000573150059   -0.1900
     26 H26       -11.8666   -2.2437   56.4998 H       1  ZINC000573150059    0.0500
     27 H27       -10.1091   -2.3992   56.7348 H       1  ZINC000573150059    0.0400
     28 H28       -11.0145   -1.1352   57.6014 H       1  ZINC000573150059    0.0900
     29 H29       -12.6693   -1.1095   53.8028 H       1  ZINC000573150059    0.0700
     30 H30       -11.8863   -2.4310   52.9034 H       1  ZINC000573150059    0.0700
     31 H31       -12.3418   -2.6626   54.6083 H       1  ZINC000573150059    0.0700
     32 H32        -8.8008    0.4700   54.5542 H       1  ZINC000573150059    0.4100
     33 H33       -10.5709    2.3599   52.4817 H       1  ZINC000573150059    0.1200
     34 H34        -9.7412    3.9799   50.8267 H       1  ZINC000573150059    0.1300
     35 H35        -7.3870    3.9233   50.1166 H       1  ZINC000573150059    0.1200
     36 H36        -5.1431    1.3951   50.6929 H       1  ZINC000573150059    0.4100
     37 H37        -3.4671    2.8097   52.5736 H       1  ZINC000573150059    0.0600
     38 H38        -3.5224    4.5745   52.3489 H       1  ZINC000573150059    0.0700
     39 H39        -4.8947    3.7302   53.1056 H       1  ZINC000573150059    0.0700
     40 H40        -2.8930    5.3160   50.3398 H       1  ZINC000573150059    0.1500
     41 H41        -1.1170    5.1315   48.6099 H       1  ZINC000573150059    0.1500
     42 H42        -2.5828    1.2245   47.6985 H       1  ZINC000573150059    0.1700
     43 H43        -6.6762    0.6138   52.7295 H       1  ZINC000573150059    0.1400
@<TRIPOS>BOND
     1     1     2    1
     2     1    26    1
     3     1    27    1
     4     1    28    1
     5     2     3    1
     6     3     4    1
     7     3     5    1
     8     3     6    1
     9     5    29    1
    10     5    30    1
    11     5    31    1
    12     6     7    2
    13     6     8   am
    14     8     9    1
    15     8    32    1
    16     9    25   ar
    17     9    10   ar
    18    10    11   ar
    19    10    33    1
    20    11    12   ar
    21    11    34    1
    22    12    13   ar
    23    12    35    1
    24    13    14    1
    25    13    25   ar
    26    14    15    1
    27    14    36    1
    28    15    16    1
    29    15    17    1
    30    15    18    1
    31    17    37    1
    32    17    38    1
    33    17    39    1
    34    18    24   ar
    35    18    19   ar
    36    19    20   ar
    37    19    40    1
    38    20    21   ar
    39    20    41    1
    40    21    22    1
    41    21    23   ar
    42    23    24   ar
    43    23    42    1
    44    25    43    1
@<TRIPOS>SUBSTRUCTURE
     1 ZINC000573150059        1 TEMP              0 ****  ****    0 ROOT


##########                                Name:    ZINC000965273005
##########                DOCK_Rotatable_Bonds:                   7
##########                         Heavy_Atoms:                  27
##########                    Molecular_Weight:             368.436
##########                DOCK_Rotatable_Bonds:                   7
##########                       Formal_Charge:           0.0100003
##########                     HBond_Acceptors:                   7
##########                        HBond_Donors:                   2
##########                         Heavy_Atoms:                  27
##########                          Grid_Score:          -28.355856
##########                     Grid_vdw_energy:          -28.151913
##########                      Grid_es_energy:           -0.203943
##########           Internal_energy_repulsive:           12.793977

@<TRIPOS>MOLECULE
ZINC000965273005
 51 54 1 0 0
SMALL
USER_CHARGES


@<TRIPOS>ATOM
      1 C1          1.7851   -1.7449   49.7461 C.3     1  ZINC000965273005   -0.1200
      2 C2          3.2006   -1.2584   49.9213 C.ar    1  ZINC000965273005   -0.0300
      3 C3          4.0496   -1.9030   50.7968 C.ar    1  ZINC000965273005   -0.1200
      4 C4          5.3497   -1.4575   50.9588 C.ar    1  ZINC000965273005   -0.0900
      5 C5          5.8069   -0.3645   50.2448 C.ar    1  ZINC000965273005   -0.1300
      6 C6          4.9679    0.2893   49.3658 C.ar    1  ZINC000965273005   -0.0900
      7 C7          3.6572   -0.1580   49.1938 C.ar    1  ZINC000965273005   -0.1300
      8 C8          2.7527    0.5377   48.2537 C.2     1  ZINC000965273005    0.5800
      9 O9          2.3372   -0.0415   47.2691 O.2     1  ZINC000965273005   -0.5200
     10 N10         2.3889    1.8139   48.4885 N.am    1  ZINC000965273005   -0.6100
     11 C11         1.4922    2.6215   47.6415 C.3     1  ZINC000965273005    0.0900
     12 C12         0.9107    3.6972   48.5924 C.3     1  ZINC000965273005    0.1500
     13 H13         0.6011    4.5829   48.0376 H       1  ZINC000965273005    0.1200
     14 N14        -0.2020    3.1576   49.3779 N.am    1  ZINC000965273005   -0.7100
     15 C15        -1.4704    3.4906   49.0668 C.2     1  ZINC000965273005    0.6000
     16 O16        -1.6911    4.2403   48.1351 O.2     1  ZINC000965273005   -0.5400
     17 C17        -2.5902    2.9462   49.8562 C.2     1  ZINC000965273005   -0.2800
     18 C18        -3.7353    2.3588   49.3570 C.2     1  ZINC000965273005    0.1000
     19 N19        -4.4940    2.0023   50.4057 N.pl3   1  ZINC000965273005   -0.3600
     20 C20        -5.8004    1.3433   50.3325 C.3     1  ZINC000965273005    0.1000
     21 N21        -3.8262    2.3656   51.5805 N.2     1  ZINC000965273005   -0.3000
     22 C22        -2.6896    2.9226   51.2655 C.2     1  ZINC000965273005    0.1700
     23 C23        -1.6665    3.4569   52.2343 C.3     1  ZINC000965273005   -0.0800
     24 C24        -1.1780    4.8918   52.0261 C.3     1  ZINC000965273005   -0.1700
     25 C25        -2.1114    4.5632   53.1930 C.3     1  ZINC000965273005   -0.1600
     26 C26         2.1327    4.0065   49.4972 C.3     1  ZINC000965273005    0.0900
     27 H27         2.7972    4.7240   49.0158 H       1  ZINC000965273005    0.0900
     28 O28         1.7077    4.4907   50.7727 O.3     1  ZINC000965273005   -0.5500
     29 C29         2.8154    2.6295   49.6350 C.3     1  ZINC000965273005    0.0600
     30 H30         1.7348   -2.4154   48.8883 H       1  ZINC000965273005    0.0800
     31 H31         1.4705   -2.2782   50.6431 H       1  ZINC000965273005    0.0700
     32 H32         1.1259   -0.8927   49.5803 H       1  ZINC000965273005    0.0700
     33 H33         3.6988   -2.7569   51.3572 H       1  ZINC000965273005    0.1300
     34 H34         6.0102   -1.9653   51.6460 H       1  ZINC000965273005    0.1300
     35 H35         6.8227   -0.0218   50.3758 H       1  ZINC000965273005    0.1300
     36 H36         5.3260    1.1428   48.8092 H       1  ZINC000965273005    0.1300
     37 H37         2.0542    3.0921   46.8348 H       1  ZINC000965273005    0.0900
     38 H38         0.6927    2.0012   47.2363 H       1  ZINC000965273005    0.0900
     39 H39        -0.0259    2.5605   50.1219 H       1  ZINC000965273005    0.4000
     40 H40        -3.9769    2.2134   48.3145 H       1  ZINC000965273005    0.1800
     41 H41        -5.6627    0.2620   50.3362 H       1  ZINC000965273005    0.0800
     42 H42        -6.4035    1.6357   51.1920 H       1  ZINC000965273005    0.1000
     43 H43        -6.3069    1.6419   49.4147 H       1  ZINC000965273005    0.0900
     44 H44        -0.9458    2.7286   52.6063 H       1  ZINC000965273005    0.1400
     45 H45        -0.1357    5.1077   52.2608 H       1  ZINC000965273005    0.1000
     46 H46        -1.5967    5.4494   51.1883 H       1  ZINC000965273005    0.1000
     47 H47        -3.1442    4.9046   53.1228 H       1  ZINC000965273005    0.0900
     48 H48        -1.6832    4.5630   54.1953 H       1  ZINC000965273005    0.1000
     49 H49         1.4775    3.7931   51.4015 H       1  ZINC000965273005    0.3900
     50 H50         2.5091    2.1556   50.5676 H       1  ZINC000965273005    0.0800
     51 H51         3.8987    2.7492   49.6158 H       1  ZINC000965273005    0.0800
@<TRIPOS>BOND
     1     1     2    1
     2     1    30    1
     3     1    31    1
     4     1    32    1
     5     2     7   ar
     6     2     3   ar
     7     3     4   ar
     8     3    33    1
     9     4     5   ar
    10     4    34    1
    11     5     6   ar
    12     5    35    1
    13     6     7   ar
    14     6    36    1
    15     7     8    1
    16     8     9    2
    17     8    10   am
    18    10    29    1
    19    10    11    1
    20    11    12    1
    21    11    37    1
    22    11    38    1
    23    12    13    1
    24    12    14    1
    25    12    26    1
    26    14    15   am
    27    14    39    1
    28    15    16    2
    29    15    17    1
    30    17    22    1
    31    17    18    2
    32    18    19    1
    33    18    40    1
    34    19    20    1
    35    19    21    1
    36    20    41    1
    37    20    42    1
    38    20    43    1
    39    21    22    2
    40    22    23    1
    41    23    25    1
    42    23    24    1
    43    23    44    1
    44    24    25    1
    45    24    45    1
    46    24    46    1
    47    25    47    1
    48    25    48    1
    49    26    27    1
    50    26    28    1
    51    26    29    1
    52    28    49    1
    53    29    50    1
    54    29    51    1
@<TRIPOS>SUBSTRUCTURE
     1 ZINC000965273005        1 TEMP              0 ****  ****    0 ROOT


##########                                Name:    ZINC000053543817
##########                DOCK_Rotatable_Bonds:                   7
##########                         Heavy_Atoms:                  25
##########                    Molecular_Weight:             350.458
##########                DOCK_Rotatable_Bonds:                   7
##########                       Formal_Charge:           0.0199998
##########                     HBond_Acceptors:                   6
##########                        HBond_Donors:                   2
##########                         Heavy_Atoms:                  25
##########                          Grid_Score:          -28.354149
##########                     Grid_vdw_energy:          -28.142752
##########                      Grid_es_energy:           -0.211397
##########           Internal_energy_repulsive:           34.514736

@<TRIPOS>MOLECULE
ZINC000053543817
 55 56 1 0 0
SMALL
USER_CHARGES


@<TRIPOS>ATOM
      1 C1        -14.3945   -5.2018   56.3035 C.3     1  ZINC000053543817   -0.0700
      2 C2        -14.6416   -4.3048   57.4890 C.2     1  ZINC000053543817   -0.0200
      3 C3        -13.8802   -3.2543   57.8539 C.2     1  ZINC000053543817   -0.1800
      4 C4        -14.4733   -2.7081   59.0063 C.2     1  ZINC000053543817   -0.1900
      5 C5        -15.5640   -3.4519   59.2833 C.2     1  ZINC000053543817    0.0000
      6 C6        -16.4854   -3.1928   60.4503 C.3     1  ZINC000053543817   -0.0300
      7 C7        -16.2281   -1.7715   60.9648 C.3     1  ZINC000053543817   -0.0500
      8 C8        -16.7393   -0.7578   59.9391 C.3     1  ZINC000053543817   -0.1500
      9 C9        -16.9629   -1.5689   62.2915 C.3     1  ZINC000053543817   -0.1400
     10 C10       -14.7256   -1.5680   61.1780 C.3     1  ZINC000053543817   -0.1200
     11 C11       -14.0191   -1.5225   59.8170 C.3     1  ZINC000053543817    0.2200
     12 H12       -14.2812   -0.6004   59.2981 H       1  ZINC000053543817    0.1000
     13 N13       -12.5685   -1.5838   60.0117 N.am    1  ZINC000053543817   -0.7100
     14 C14       -11.8526   -0.4458   60.1072 C.2     1  ZINC000053543817    0.5100
     15 O15       -12.4093    0.6290   60.0305 O.2     1  ZINC000053543817   -0.5300
     16 C16       -10.3606   -0.5090   60.3093 C.3     1  ZINC000053543817    0.1400
     17 H17        -9.9162    0.4485   60.0376 H       1  ZINC000053543817    0.1200
     18 C18        -9.7728   -1.6126   59.4277 C.3     1  ZINC000053543817   -0.1600
     19 N19       -10.0702   -0.8006   61.7154 N.am    1  ZINC000053543817   -0.7000
     20 C20        -9.8756    0.2091   62.5867 C.2     1  ZINC000053543817    0.6600
     21 O21        -9.9394    1.3612   62.2057 O.2     1  ZINC000053543817   -0.5700
     22 O22        -9.6103   -0.0588   63.8792 O.3     1  ZINC000053543817   -0.3600
     23 C23        -9.3042    1.0716   64.7374 C.3     1  ZINC000053543817    0.1400
     24 C24        -8.0870    1.8162   64.1853 C.3     1  ZINC000053543817   -0.1800
     25 C25       -10.5049    2.0188   64.7810 C.3     1  ZINC000053543817   -0.1400
     26 C26        -8.9981    0.5709   66.1505 C.3     1  ZINC000053543817   -0.1800
     27 O27       -15.6624   -4.4140   58.3582 O.3     1  ZINC000053543817   -0.1700
     28 H28       -15.1745   -5.9617   56.2540 H       1  ZINC000053543817    0.0800
     29 H29       -14.4074   -4.6080   55.3896 H       1  ZINC000053543817    0.0800
     30 H30       -13.4231   -5.6847   56.4095 H       1  ZINC000053543817    0.0800
     31 H31       -12.9882   -2.9010   57.3581 H       1  ZINC000053543817    0.1400
     32 H32       -17.5220   -3.2830   60.1257 H       1  ZINC000053543817    0.0900
     33 H33       -16.2828   -3.9121   61.2438 H       1  ZINC000053543817    0.0900
     34 H34       -17.8091   -0.9016   59.7882 H       1  ZINC000053543817    0.0600
     35 H35       -16.5565    0.2527   60.3047 H       1  ZINC000053543817    0.0600
     36 H36       -16.2163   -0.9023   58.9938 H       1  ZINC000053543817    0.0600
     37 H37       -16.5993   -2.2913   63.0222 H       1  ZINC000053543817    0.0600
     38 H38       -16.7802   -0.5586   62.6575 H       1  ZINC000053543817    0.0600
     39 H39       -18.0328   -1.7125   62.1399 H       1  ZINC000053543817    0.0600
     40 H40       -14.5572   -0.6297   61.7065 H       1  ZINC000053543817    0.0800
     41 H41       -14.3270   -2.3939   61.7672 H       1  ZINC000053543817    0.0700
     42 H42       -12.1231   -2.4434   60.0719 H       1  ZINC000053543817    0.4000
     43 H43        -9.9888   -1.3957   58.3816 H       1  ZINC000053543817    0.0800
     44 H44        -8.6936   -1.6584   59.5739 H       1  ZINC000053543817    0.0800
     45 H45       -10.2172   -2.5701   59.6996 H       1  ZINC000053543817    0.0700
     46 H46       -10.0182   -1.7202   62.0193 H       1  ZINC000053543817    0.4200
     47 H47        -8.3050    2.1729   63.1787 H       1  ZINC000053543817    0.0600
     48 H48        -7.8570    2.6648   64.8297 H       1  ZINC000053543817    0.0700
     49 H49        -7.2315    1.1413   64.1544 H       1  ZINC000053543817    0.0900
     50 H50       -11.3721    1.4884   65.1743 H       1  ZINC000053543817    0.0700
     51 H51       -10.2750    2.8675   65.4253 H       1  ZINC000053543817    0.0800
     52 H52       -10.7230    2.3755   63.7744 H       1  ZINC000053543817    0.0700
     53 H53        -8.1427   -0.1039   66.1194 H       1  ZINC000053543817    0.0900
     54 H54        -8.7682    1.4195   66.7948 H       1  ZINC000053543817    0.0700
     55 H55        -9.8652    0.0405   66.5437 H       1  ZINC000053543817    0.0600
@<TRIPOS>BOND
     1     1     2    1
     2     1    28    1
     3     1    29    1
     4     1    30    1
     5     2    27    1
     6     2     3    2
     7     3     4    1
     8     3    31    1
     9     4    11    1
    10     4     5    2
    11     5     6    1
    12     5    27    1
    13     6     7    1
    14     6    32    1
    15     6    33    1
    16     7     8    1
    17     7     9    1
    18     7    10    1
    19     8    34    1
    20     8    35    1
    21     8    36    1
    22     9    37    1
    23     9    38    1
    24     9    39    1
    25    10    11    1
    26    10    40    1
    27    10    41    1
    28    11    12    1
    29    11    13    1
    30    13    14   am
    31    13    42    1
    32    14    15    2
    33    14    16    1
    34    16    17    1
    35    16    18    1
    36    16    19    1
    37    18    43    1
    38    18    44    1
    39    18    45    1
    40    19    20   am
    41    19    46    1
    42    20    21    2
    43    20    22    1
    44    22    23    1
    45    23    24    1
    46    23    25    1
    47    23    26    1
    48    24    47    1
    49    24    48    1
    50    24    49    1
    51    25    50    1
    52    25    51    1
    53    25    52    1
    54    26    53    1
    55    26    54    1
    56    26    55    1
@<TRIPOS>SUBSTRUCTURE
     1 ZINC000053543817        1 TEMP              0 ****  ****    0 ROOT


##########                                Name:    ZINC001707804910
##########                DOCK_Rotatable_Bonds:                   4
##########                         Heavy_Atoms:                  26
##########                    Molecular_Weight:             358.403
##########                DOCK_Rotatable_Bonds:                   4
##########                       Formal_Charge:          -0.0399996
##########                     HBond_Acceptors:                  10
##########                        HBond_Donors:                   0
##########                         Heavy_Atoms:                  26
##########                          Grid_Score:          -28.339314
##########                     Grid_vdw_energy:          -28.205816
##########                      Grid_es_energy:           -0.133496
##########           Internal_energy_repulsive:            7.927514

@<TRIPOS>MOLECULE
ZINC001707804910
 48 51 1 0 0
SMALL
USER_CHARGES


@<TRIPOS>ATOM
      1 C1          4.3327    3.7336   49.5930 C.3     1  ZINC001707804910   -0.0700
      2 C2          3.0925    4.5600   49.3695 C.2     1  ZINC001707804910    0.0700
      3 N3          2.7937    5.6763   49.9830 N.2     1  ZINC001707804910   -0.2800
      4 N4          1.5620    6.1291   49.4927 N.pl3   1  ZINC001707804910   -0.3700
      5 C5          0.8620    7.3457   49.9121 C.3     1  ZINC001707804910    0.0900
      6 C6          1.1343    5.2466   48.5656 C.2     1  ZINC001707804910    0.0500
      7 C7         -0.1473    5.3366   47.7780 C.3     1  ZINC001707804910    0.1800
      8 N8         -0.6131    3.9876   47.4474 N.pl3   1  ZINC001707804910   -0.4600
      9 C9         -0.3035    3.2571   46.3337 C.2     1  ZINC001707804910    0.1900
     10 C10         0.5910    3.6910   45.2012 C.3     1  ZINC001707804910   -0.0700
     11 N11        -0.9245    2.1161   46.4336 N.2     1  ZINC001707804910   -0.2800
     12 N12        -1.6003    2.0762   47.5262 N.2     1  ZINC001707804910   -0.3000
     13 C13        -1.4412    3.1970   48.1898 C.2     1  ZINC001707804910    0.3500
     14 N14        -2.0130    3.5200   49.4101 N.3     1  ZINC001707804910   -0.4600
     15 C15        -1.1054    3.1949   50.5199 C.3     1  ZINC001707804910    0.0200
     16 C16        -1.7502    3.6218   51.8412 C.3     1  ZINC001707804910    0.0700
     17 O17        -3.0210    2.9794   51.9751 O.3     1  ZINC001707804910   -0.3600
     18 C18        -3.9302    3.2746   50.9115 C.3     1  ZINC001707804910    0.2000
     19 H19        -4.1301    4.3459   50.8902 H       1  ZINC001707804910    0.1000
     20 C20        -5.2200    2.5263   51.1298 C.2     1  ZINC001707804910    0.1600
     21 N21        -6.4173    2.9550   50.8471 N.2     1  ZINC001707804910   -0.2500
     22 N22        -7.2794    2.0544   51.1652 N.2     1  ZINC001707804910   -0.2900
     23 C23        -6.6615    1.0207   51.6617 C.2     1  ZINC001707804910    0.1700
     24 C24        -7.3041   -0.2493   52.1572 C.3     1  ZINC001707804910   -0.0600
     25 O25        -5.3457    1.2924   51.6464 O.3     1  ZINC001707804910   -0.2200
     26 C26        -3.3074    2.8443   49.5807 C.3     1  ZINC001707804910    0.0400
     27 C27         2.0650    4.2694   48.4661 C.2     1  ZINC001707804910   -0.2300
     28 H28         5.1201    4.0704   48.9188 H       1  ZINC001707804910    0.0800
     29 H29         4.6644    3.8478   50.6250 H       1  ZINC001707804910    0.0700
     30 H30         4.1105    2.6846   49.3968 H       1  ZINC001707804910    0.0800
     31 H31         1.2524    8.1991   49.3576 H       1  ZINC001707804910    0.0800
     32 H32        -0.2041    7.2391   49.7115 H       1  ZINC001707804910    0.0900
     33 H33         1.0168    7.5044   50.9794 H       1  ZINC001707804910    0.0900
     34 H34        -0.9046    5.8468   48.3733 H       1  ZINC001707804910    0.1100
     35 H35         0.0295    5.8953   46.8589 H       1  ZINC001707804910    0.1200
     36 H36         1.6304    3.4913   45.4621 H       1  ZINC001707804910    0.0900
     37 H37         0.3300    3.1372   44.2994 H       1  ZINC001707804910    0.1000
     38 H38         0.4597    4.7583   45.0229 H       1  ZINC001707804910    0.0700
     39 H39        -0.9198    2.1210   50.5357 H       1  ZINC001707804910    0.0700
     40 H40        -0.1628    3.7259   50.3866 H       1  ZINC001707804910    0.0900
     41 H41        -1.1062    3.3310   52.6712 H       1  ZINC001707804910    0.1200
     42 H42        -1.8866    4.7032   51.8470 H       1  ZINC001707804910    0.0700
     43 H43        -7.3826   -0.9613   51.3356 H       1  ZINC001707804910    0.1000
     44 H44        -6.6950   -0.6782   52.9529 H       1  ZINC001707804910    0.1000
     45 H45        -8.2995   -0.0268   52.5415 H       1  ZINC001707804910    0.1100
     46 H46        -3.9724    3.1192   48.7619 H       1  ZINC001707804910    0.1000
     47 H47        -3.1571    1.7646   49.5815 H       1  ZINC001707804910    0.0800
     48 H48         2.0194    3.4131   47.8096 H       1  ZINC001707804910    0.1500
@<TRIPOS>BOND
     1     1     2    1
     2     1    28    1
     3     1    29    1
     4     1    30    1
     5     2    27    1
     6     2     3    2
     7     3     4    1
     8     4     5    1
     9     4     6    1
    10     5    31    1
    11     5    32    1
    12     5    33    1
    13     6     7    1
    14     6    27    2
    15     7     8    1
    16     7    34    1
    17     7    35    1
    18     8    13    1
    19     8     9    1
    20     9    10    1
    21     9    11    2
    22    10    36    1
    23    10    37    1
    24    10    38    1
    25    11    12    1
    26    12    13    2
    27    13    14    1
    28    14    26    1
    29    14    15    1
    30    15    16    1
    31    15    39    1
    32    15    40    1
    33    16    17    1
    34    16    41    1
    35    16    42    1
    36    17    18    1
    37    18    19    1
    38    18    20    1
    39    18    26    1
    40    20    25    1
    41    20    21    2
    42    21    22    1
    43    22    23    2
    44    23    24    1
    45    23    25    1
    46    24    43    1
    47    24    44    1
    48    24    45    1
    49    26    46    1
    50    26    47    1
    51    27    48    1
@<TRIPOS>SUBSTRUCTURE
     1 ZINC001707804910        1 TEMP              0 ****  ****    0 ROOT


##########                                Name:    ZINC000970996691
##########                DOCK_Rotatable_Bonds:                   7
##########                         Heavy_Atoms:                  24
##########                    Molecular_Weight:             334.462
##########                DOCK_Rotatable_Bonds:                   7
##########                       Formal_Charge:          -0.0199999
##########                     HBond_Acceptors:                   6
##########                        HBond_Donors:                   0
##########                         Heavy_Atoms:                  24
##########                          Grid_Score:          -28.333431
##########                     Grid_vdw_energy:          -28.420647
##########                      Grid_es_energy:            0.087216
##########           Internal_energy_repulsive:           11.241422

@<TRIPOS>MOLECULE
ZINC000970996691
 54 56 1 0 0
SMALL
USER_CHARGES


@<TRIPOS>ATOM
      1 C1         -0.9414    2.6213   57.9570 C.3     1  ZINC000970996691   -0.1500
      2 C2         -2.0481    3.0563   56.9944 C.3     1  ZINC000970996691   -0.1200
      3 C3         -1.4441    3.3397   55.6174 C.3     1  ZINC000970996691   -0.0300
      4 C4         -2.5371    3.7488   54.6640 C.2     1  ZINC000970996691    0.1800
      5 N5         -2.5478    3.5696   53.3650 N.2     1  ZINC000970996691   -0.4700
      6 C6         -3.7125    4.0889   52.9376 C.2     1  ZINC000970996691    0.1800
      7 C7         -4.2014    4.1295   51.5126 C.3     1  ZINC000970996691    0.1500
      8 N8         -3.5451    3.0670   50.7394 N.3     1  ZINC000970996691   -0.5200
      9 C9         -4.5329    2.1280   50.1911 C.3     1  ZINC000970996691    0.0200
     10 C10        -2.7078    3.6325   49.6728 C.3     1  ZINC000970996691    0.0700
     11 H11        -3.2593    4.3780   49.1000 H       1  ZINC000970996691    0.0600
     12 C12        -1.3994    4.2322   50.2520 C.3     1  ZINC000970996691   -0.1300
     13 C13        -0.4175    4.1299   49.0658 C.3     1  ZINC000970996691    0.1000
     14 N14        -0.9264    3.0836   48.1671 N.am    1  ZINC000970996691   -0.6200
     15 C15        -0.3611    2.7039   47.0039 C.2     1  ZINC000970996691    0.5300
     16 O16        -0.8700    1.8253   46.3406 O.2     1  ZINC000970996691   -0.5300
     17 C17         0.9035    3.3710   46.5278 C.3     1  ZINC000970996691   -0.1000
     18 C18         1.9373    2.3036   46.1635 C.3     1  ZINC000970996691   -0.1100
     19 C19         3.2212    2.9810   45.6800 C.3     1  ZINC000970996691   -0.1200
     20 C20         2.9144    3.8352   44.4484 C.3     1  ZINC000970996691   -0.1200
     21 C21         1.8806    4.9027   44.8126 C.3     1  ZINC000970996691   -0.1200
     22 C22         0.5968    4.2253   45.2960 C.3     1  ZINC000970996691   -0.1000
     23 C23        -2.1577    2.5175   48.7488 C.3     1  ZINC000970996691    0.1200
     24 N24        -4.3390    4.5489   53.9790 N.2     1  ZINC000970996691   -0.3800
     25 O25        -3.6834    4.3582   54.9815 O.3     1  ZINC000970996691    0.0800
     26 H26        -0.4635    1.7184   57.5771 H       1  ZINC000970996691    0.0600
     27 H27        -0.2005    3.4163   58.0420 H       1  ZINC000970996691    0.0600
     28 H28        -1.3717    2.4194   58.9379 H       1  ZINC000970996691    0.0600
     29 H29        -2.7891    2.2613   56.9094 H       1  ZINC000970996691    0.0700
     30 H30        -2.5261    3.9593   57.3743 H       1  ZINC000970996691    0.0700
     31 H31        -0.7138    4.1447   55.6999 H       1  ZINC000970996691    0.1100
     32 H32        -0.9536    2.4409   55.2439 H       1  ZINC000970996691    0.1000
     33 H33        -5.2806    3.9787   51.4944 H       1  ZINC000970996691    0.0700
     34 H34        -3.9625    5.0985   51.0742 H       1  ZINC000970996691    0.1100
     35 H35        -5.2192    2.6643   49.5357 H       1  ZINC000970996691    0.0300
     36 H36        -4.0201    1.3517   49.6232 H       1  ZINC000970996691    0.0800
     37 H37        -5.0924    1.6714   51.0077 H       1  ZINC000970996691    0.0700
     38 H38        -1.5471    5.2726   50.5416 H       1  ZINC000970996691    0.0800
     39 H39        -1.0457    3.6420   51.0975 H       1  ZINC000970996691    0.0900
     40 H40        -0.3732    5.0825   48.5381 H       1  ZINC000970996691    0.0700
     41 H41         0.5740    3.8576   49.4277 H       1  ZINC000970996691    0.0700
     42 H42         1.3002    4.0055   47.3203 H       1  ZINC000970996691    0.0900
     43 H43         2.1559    1.6950   47.0410 H       1  ZINC000970996691    0.0700
     44 H44         1.5407    1.6691   45.3709 H       1  ZINC000970996691    0.0700
     45 H45         3.6178    3.6155   46.4725 H       1  ZINC000970996691    0.0600
     46 H46         3.9576    2.2205   45.4205 H       1  ZINC000970996691    0.0700
     47 H47         3.8291    4.3178   44.1039 H       1  ZINC000970996691    0.0600
     48 H48         2.5177    3.2007   43.6558 H       1  ZINC000970996691    0.0600
     49 H49         2.2773    5.5372   45.6051 H       1  ZINC000970996691    0.0600
     50 H50         1.6621    5.5113   43.9351 H       1  ZINC000970996691    0.0700
     51 H51         0.2000    3.5908   44.5035 H       1  ZINC000970996691    0.0800
     52 H52        -0.1398    4.9858   45.5556 H       1  ZINC000970996691    0.0600
     53 H53        -1.9271    1.6241   49.3291 H       1  ZINC000970996691    0.0800
     54 H54        -2.8766    2.2855   47.9630 H       1  ZINC000970996691    0.0800
@<TRIPOS>BOND
     1     1     2    1
     2     1    26    1
     3     1    27    1
     4     1    28    1
     5     2     3    1
     6     2    29    1
     7     2    30    1
     8     3     4    1
     9     3    31    1
    10     3    32    1
    11     4    25    1
    12     4     5    2
    13     5     6    1
    14     6     7    1
    15     6    24    2
    16     7     8    1
    17     7    33    1
    18     7    34    1
    19     8     9    1
    20     8    10    1
    21     9    35    1
    22     9    36    1
    23     9    37    1
    24    10    11    1
    25    10    23    1
    26    10    12    1
    27    12    13    1
    28    12    38    1
    29    12    39    1
    30    13    14    1
    31    13    40    1
    32    13    41    1
    33    14    15   am
    34    14    23    1
    35    15    16    2
    36    15    17    1
    37    17    22    1
    38    17    18    1
    39    17    42    1
    40    18    19    1
    41    18    43    1
    42    18    44    1
    43    19    20    1
    44    19    45    1
    45    19    46    1
    46    20    21    1
    47    20    47    1
    48    20    48    1
    49    21    22    1
    50    21    49    1
    51    21    50    1
    52    22    51    1
    53    22    52    1
    54    23    53    1
    55    23    54    1
    56    24    25    1
@<TRIPOS>SUBSTRUCTURE
     1 ZINC000970996691        1 TEMP              0 ****  ****    0 ROOT


##########                                Name:    ZINC000543020509
##########                DOCK_Rotatable_Bonds:                   5
##########                         Heavy_Atoms:                  26
##########                    Molecular_Weight:              366.81
##########                DOCK_Rotatable_Bonds:                   5
##########                       Formal_Charge:               -0.02
##########                     HBond_Acceptors:                   8
##########                        HBond_Donors:                   1
##########                         Heavy_Atoms:                  26
##########                          Grid_Score:          -28.222858
##########                     Grid_vdw_energy:          -28.033642
##########                      Grid_es_energy:           -0.189217
##########           Internal_energy_repulsive:           15.343264

@<TRIPOS>MOLECULE
ZINC000543020509
 41 43 1 0 0
SMALL
USER_CHARGES


@<TRIPOS>ATOM
      1 C1          0.3816    5.9616   48.2364 C.3     1  ZINC000543020509    0.0800
      2 N2         -0.7975    5.6403   49.0444 N.pl3   1  ZINC000543020509   -0.6200
      3 C3         -1.2516    6.5716   50.0800 C.3     1  ZINC000543020509    0.0900
      4 C4         -1.4862    4.4502   48.8280 C.ar    1  ZINC000543020509    0.2500
      5 C5         -1.0700    3.5523   47.8465 C.ar    1  ZINC000543020509   -0.2200
      6 C6         -1.7780    2.3795   47.6594 C.ar    1  ZINC000543020509    0.1400
      7 N7         -2.8350    2.1014   48.3928 N.ar    1  ZINC000543020509   -0.5000
      8 C8         -3.2680    2.9272   49.3394 C.ar    1  ZINC000543020509    0.1100
      9 C9         -4.4628    2.5667   50.1374 C.2     1  ZINC000543020509    0.5900
     10 O10        -5.0622    1.5359   49.9022 O.2     1  ZINC000543020509   -0.5000
     11 N11        -4.8853    3.3816   51.1242 N.am    1  ZINC000543020509   -0.6200
     12 C12        -6.0131    3.0401   51.8792 C.2     1  ZINC000543020509    0.3200
     13 N13        -7.1052    2.4760   51.4192 N.2     1  ZINC000543020509   -0.3100
     14 N14        -7.9916    2.3002   52.4896 N.pl3   1  ZINC000543020509   -0.3300
     15 C15        -9.2659    1.7321   52.4168 C.ar    1  ZINC000543020509    0.2200
     16 C16       -10.3905    2.5437   52.4029 C.ar    1  ZINC000543020509   -0.1300
     17 C17       -11.6500    1.9808   52.3307 C.ar    1  ZINC000543020509   -0.0500
     18 C18       -11.8003    0.6045   52.2721 C.ar    1  ZINC000543020509   -0.0600
     19 Cl19      -13.3896   -0.0881   52.1818 Cl      1  ZINC000543020509   -0.0500
     20 C20       -10.6921   -0.2179   52.2846 C.ar    1  ZINC000543020509   -0.0400
     21 C21        -9.4132    0.3384   52.3517 C.ar    1  ZINC000543020509   -0.0200
     22 C22        -8.2591   -0.5091   52.3651 C.1     1  ZINC000543020509    0.2500
     23 N23        -7.3434   -1.1815   52.3756 N.1     1  ZINC000543020509   -0.3800
     24 C24        -7.3929    2.7794   53.6112 C.2     1  ZINC000543020509    0.0700
     25 C25        -6.1695    3.2366   53.2619 C.2     1  ZINC000543020509   -0.2400
     26 C26        -2.6068    4.1238   49.5917 C.ar    1  ZINC000543020509   -0.1800
     27 H27         1.2741    5.5689   48.7238 H       1  ZINC000543020509    0.0600
     28 H28         0.2791    5.5114   47.2489 H       1  ZINC000543020509    0.0700
     29 H29         0.4690    7.0433   48.1352 H       1  ZINC000543020509    0.0700
     30 H30        -0.5931    7.4400   50.1019 H       1  ZINC000543020509    0.0800
     31 H31        -2.2694    6.8930   49.8587 H       1  ZINC000543020509    0.0600
     32 H32        -1.2303    6.0749   51.0500 H       1  ZINC000543020509    0.0600
     33 H33        -0.2044    3.7704   47.2387 H       1  ZINC000543020509    0.1400
     34 H34        -1.4591    1.6811   46.8998 H       1  ZINC000543020509    0.1700
     35 H35        -4.4075    4.2048   51.3112 H       1  ZINC000543020509    0.4300
     36 H36       -10.2815    3.6172   52.4487 H       1  ZINC000543020509    0.1500
     37 H37       -12.5225    2.6171   52.3205 H       1  ZINC000543020509    0.1500
     38 H38       -10.8138   -1.2900   52.2386 H       1  ZINC000543020509    0.1500
     39 H39        -7.8167    2.7895   54.6046 H       1  ZINC000543020509    0.1900
     40 H40        -5.4434    3.6804   53.9267 H       1  ZINC000543020509    0.1800
     41 H41        -2.9598    4.7937   50.3618 H       1  ZINC000543020509    0.1500
@<TRIPOS>BOND
     1     1     2    1
     2     1    27    1
     3     1    28    1
     4     1    29    1
     5     2     3    1
     6     2     4    1
     7     3    30    1
     8     3    31    1
     9     3    32    1
    10     4    26   ar
    11     4     5   ar
    12     5     6   ar
    13     5    33    1
    14     6     7   ar
    15     6    34    1
    16     7     8   ar
    17     8     9    1
    18     8    26   ar
    19     9    10    2
    20     9    11   am
    21    11    12    1
    22    11    35    1
    23    12    25    1
    24    12    13    2
    25    13    14    1
    26    14    15    1
    27    14    24    1
    28    15    21   ar
    29    15    16   ar
    30    16    17   ar
    31    16    36    1
    32    17    18   ar
    33    17    37    1
    34    18    19    1
    35    18    20   ar
    36    20    21   ar
    37    20    38    1
    38    21    22    1
    39    22    23    3
    40    24    25    2
    41    24    39    1
    42    25    40    1
    43    26    41    1
@<TRIPOS>SUBSTRUCTURE
     1 ZINC000543020509        1 TEMP              0 ****  ****    0 ROOT


##########                                Name:    ZINC000192150625
##########                DOCK_Rotatable_Bonds:                   5
##########                         Heavy_Atoms:                  28
##########                    Molecular_Weight:             377.443
##########                DOCK_Rotatable_Bonds:                   5
##########                       Formal_Charge:           0.0199997
##########                     HBond_Acceptors:                   6
##########                        HBond_Donors:                   1
##########                         Heavy_Atoms:                  28
##########                          Grid_Score:          -28.211533
##########                     Grid_vdw_energy:          -27.701080
##########                      Grid_es_energy:           -0.510452
##########           Internal_energy_repulsive:           13.000564

@<TRIPOS>MOLECULE
ZINC000192150625
 51 54 1 0 0
SMALL
USER_CHARGES


@<TRIPOS>ATOM
      1 C1         -2.5139    3.4378   50.7507 C.3     1  ZINC000192150625   -0.0800
      2 C2         -3.8222    2.8334   51.1916 C.2     1  ZINC000192150625    0.0400
      3 C3         -4.6590    3.3826   52.0823 C.2     1  ZINC000192150625   -0.1800
      4 C4         -4.4737    4.6871   52.8135 C.3     1  ZINC000192150625   -0.0800
      5 C5         -5.7930    2.4579   52.2026 C.ar    1  ZINC000192150625   -0.1000
      6 C6         -6.9693    2.4533   52.9494 C.ar    1  ZINC000192150625   -0.0700
      7 C7         -7.8533    1.3955   52.8239 C.ar    1  ZINC000192150625    0.1200
      8 N8         -9.0369    1.3823   53.5693 N.am    1  ZINC000192150625   -0.6400
      9 C9        -10.1851    1.8234   53.0184 C.2     1  ZINC000192150625    0.5100
     10 O10       -10.1922    2.2321   51.8755 O.2     1  ZINC000192150625   -0.4900
     11 C11       -11.4488    1.8094   53.8143 C.2     1  ZINC000192150625    0.5100
     12 O12       -11.7690    2.7846   54.4618 O.2     1  ZINC000192150625   -0.5200
     13 N13       -12.2337    0.7138   53.8132 N.am    1  ZINC000192150625   -0.5800
     14 C14       -11.8564   -0.4766   53.0391 C.3     1  ZINC000192150625    0.0500
     15 C15       -11.8627   -1.6929   53.9704 C.3     1  ZINC000192150625   -0.1200
     16 C16       -13.2259   -1.7965   54.6584 C.3     1  ZINC000192150625   -0.0500
     17 C17       -13.2473   -3.0116   55.5497 C.ar    1  ZINC000192150625   -0.0300
     18 C18       -14.4155   -3.7345   55.7361 C.ar    1  ZINC000192150625   -0.1700
     19 C19       -14.3970   -4.8434   56.5608 C.ar    1  ZINC000192150625    0.1000
     20 N20       -13.2862   -5.2150   57.1666 N.ar    1  ZINC000192150625   -0.4900
     21 C21       -12.1570   -4.5515   57.0125 C.ar    1  ZINC000192150625    0.1000
     22 C22       -12.0978   -3.4363   56.1983 C.ar    1  ZINC000192150625   -0.1700
     23 C23       -13.4709   -0.5423   55.5002 C.3     1  ZINC000192150625   -0.1200
     24 C24       -13.4798    0.6848   54.5911 C.3     1  ZINC000192150625    0.1100
     25 C25        -7.5662    0.3438   51.9560 C.ar    1  ZINC000192150625   -0.1100
     26 C26        -6.4051    0.3426   51.2150 C.ar    1  ZINC000192150625   -0.0800
     27 C27        -5.5063    1.3960   51.3281 C.ar    1  ZINC000192150625    0.0500
     28 O28        -4.3211    1.6683   50.7437 O.3     1  ZINC000192150625   -0.1900
     29 H29        -2.0408    2.7847   50.0174 H       1  ZINC000192150625    0.0800
     30 H30        -2.6975    4.4143   50.3027 H       1  ZINC000192150625    0.0900
     31 H31        -1.8572    3.5514   51.6132 H       1  ZINC000192150625    0.0900
     32 H32        -4.9128    5.4963   52.2299 H       1  ZINC000192150625    0.0700
     33 H33        -4.9646    4.6321   53.7851 H       1  ZINC000192150625    0.0700
     34 H34        -3.4095    4.8767   52.9544 H       1  ZINC000192150625    0.0700
     35 H35        -7.1897    3.2693   53.6218 H       1  ZINC000192150625    0.1400
     36 H36        -9.0313    1.0558   54.4827 H       1  ZINC000192150625    0.4300
     37 H37       -12.5733   -0.6303   52.2325 H       1  ZINC000192150625    0.0700
     38 H38       -10.8584   -0.3405   52.6226 H       1  ZINC000192150625    0.1600
     39 H39       -11.6786   -2.5968   53.3897 H       1  ZINC000192150625    0.0800
     40 H40       -11.0829   -1.5786   54.7234 H       1  ZINC000192150625    0.0700
     41 H41       -14.0075   -1.8858   53.9040 H       1  ZINC000192150625    0.0900
     42 H42       -15.3286   -3.4348   55.2433 H       1  ZINC000192150625    0.1300
     43 H43       -15.3028   -5.4119   56.7112 H       1  ZINC000192150625    0.1600
     44 H44       -11.2673   -4.8858   57.5252 H       1  ZINC000192150625    0.1600
     45 H45       -11.1699   -2.8973   56.0758 H       1  ZINC000192150625    0.1300
     46 H46       -14.4316   -0.6271   56.0084 H       1  ZINC000192150625    0.0800
     47 H47       -12.6760   -0.4388   56.2388 H       1  ZINC000192150625    0.0700
     48 H48       -13.5550    1.5879   55.1969 H       1  ZINC000192150625    0.1000
     49 H49       -14.3281    0.6282   53.9091 H       1  ZINC000192150625    0.0800
     50 H50        -8.2605   -0.4784   51.8637 H       1  ZINC000192150625    0.1400
     51 H51        -6.1930   -0.4778   50.5455 H       1  ZINC000192150625    0.1400
@<TRIPOS>BOND
     1     1     2    1
     2     1    29    1
     3     1    30    1
     4     1    31    1
     5     2    28    1
     6     2     3    2
     7     3     4    1
     8     3     5    1
     9     4    32    1
    10     4    33    1
    11     4    34    1
    12     5    27   ar
    13     5     6   ar
    14     6     7   ar
    15     6    35    1
    16     7     8    1
    17     7    25   ar
    18     8     9   am
    19     8    36    1
    20     9    10    2
    21     9    11    1
    22    11    12    2
    23    11    13   am
    24    13    24    1
    25    13    14    1
    26    14    15    1
    27    14    37    1
    28    14    38    1
    29    15    16    1
    30    15    39    1
    31    15    40    1
    32    16    17    1
    33    16    23    1
    34    16    41    1
    35    17    22   ar
    36    17    18   ar
    37    18    19   ar
    38    18    42    1
    39    19    20   ar
    40    19    43    1
    41    20    21   ar
    42    21    22   ar
    43    21    44    1
    44    22    45    1
    45    23    24    1
    46    23    46    1
    47    23    47    1
    48    24    48    1
    49    24    49    1
    50    25    26   ar
    51    25    50    1
    52    26    27   ar
    53    26    51    1
    54    27    28    1
@<TRIPOS>SUBSTRUCTURE
     1 ZINC000192150625        1 TEMP              0 ****  ****    0 ROOT


##########                                Name:    ZINC000279593480
##########                DOCK_Rotatable_Bonds:                   9
##########                         Heavy_Atoms:                  23
##########                    Molecular_Weight:              340.85
##########                DOCK_Rotatable_Bonds:                   9
##########                       Formal_Charge:          -0.0500002
##########                     HBond_Acceptors:                   6
##########                        HBond_Donors:                   3
##########                         Heavy_Atoms:                  23
##########                          Grid_Score:          -28.203453
##########                     Grid_vdw_energy:          -27.502672
##########                      Grid_es_energy:           -0.700780
##########           Internal_energy_repulsive:           11.467728

@<TRIPOS>MOLECULE
ZINC000279593480
 48 49 1 0 0
SMALL
USER_CHARGES


@<TRIPOS>ATOM
      1 C1         -8.3241    4.2500   51.0149 C.3     1  ZINC000279593480   -0.1400
      2 C2         -6.9100    4.4750   51.5540 C.3     1  ZINC000279593480   -0.1400
      3 C3         -6.0456    3.2510   51.2451 C.3     1  ZINC000279593480    0.1700
      4 H4         -6.5268    2.6521   50.4719 H       1  ZINC000279593480    0.0900
      5 C5         -5.8805    2.4103   52.5126 C.3     1  ZINC000279593480   -0.0900
      6 C6         -7.1183    1.5779   52.7281 C.ar    1  ZINC000279593480   -0.0800
      7 C7         -7.3285    0.4428   51.9677 C.ar    1  ZINC000279593480   -0.1000
      8 C8         -8.4635   -0.3210   52.1649 C.ar    1  ZINC000279593480   -0.1100
      9 C9         -9.3892    0.0507   53.1235 C.ar    1  ZINC000279593480   -0.0400
     10 Cl10      -10.8147   -0.9084   53.3722 Cl      1  ZINC000279593480   -0.0700
     11 C11        -9.1782    1.1869   53.8842 C.ar    1  ZINC000279593480   -0.1100
     12 C12        -8.0401    1.9468   53.6900 C.ar    1  ZINC000279593480   -0.1000
     13 N13        -4.7291    3.6890   50.7748 N.am    1  ZINC000279593480   -0.7400
     14 C14        -4.0499    2.9425   49.8815 C.2     1  ZINC000279593480    0.7100
     15 O15        -4.5306    1.9062   49.4650 O.2     1  ZINC000279593480   -0.5800
     16 N16        -2.8381    3.3445   49.4500 N.am    1  ZINC000279593480   -0.7500
     17 C17        -2.1006    2.5339   48.4778 C.3     1  ZINC000279593480    0.1200
     18 C18        -0.6630    3.0468   48.3721 C.3     1  ZINC000279593480    0.0900
     19 O19        -0.6520    4.4425   48.0655 O.3     1  ZINC000279593480   -0.5400
     20 C20         0.1079    2.7712   49.6824 C.3     1  ZINC000279593480   -0.1900
     21 C21         1.2636    1.8420   49.2496 C.3     1  ZINC000279593480    0.0500
     22 O22         1.4502    2.1154   47.8438 O.3     1  ZINC000279593480   -0.3600
     23 C23         0.1181    2.2516   47.3025 C.3     1  ZINC000279593480    0.0900
     24 H24        -0.3333    1.2706   47.1543 H       1  ZINC000279593480    0.0800
     25 C25         0.1559    3.0245   45.9827 C.3     1  ZINC000279593480   -0.1400
     26 H26        -8.7580    3.3697   51.4893 H       1  ZINC000279593480    0.0600
     27 H27        -8.9399    5.1220   51.2350 H       1  ZINC000279593480    0.0400
     28 H28        -8.2819    4.0979   49.9364 H       1  ZINC000279593480    0.0600
     29 H29        -6.4761    5.3553   51.0796 H       1  ZINC000279593480    0.0600
     30 H30        -6.9522    4.6271   52.6326 H       1  ZINC000279593480    0.0700
     31 H31        -5.0164    1.7549   52.4040 H       1  ZINC000279593480    0.0800
     32 H32        -5.7319    3.0686   53.3685 H       1  ZINC000279593480    0.0900
     33 H33        -6.6059    0.1528   51.2192 H       1  ZINC000279593480    0.1300
     34 H34        -8.6278   -1.2077   51.5705 H       1  ZINC000279593480    0.1300
     35 H35        -9.9006    1.4778   54.6324 H       1  ZINC000279593480    0.1300
     36 H36        -7.8751    2.8335   54.2840 H       1  ZINC000279593480    0.1300
     37 H37        -4.3462    4.5163   51.1062 H       1  ZINC000279593480    0.3900
     38 H38        -2.4541    4.1706   49.7833 H       1  ZINC000279593480    0.3900
     39 H39        -2.0923    1.4939   48.8038 H       1  ZINC000279593480    0.0800
     40 H40        -2.5845    2.6054   47.5036 H       1  ZINC000279593480    0.0800
     41 H41        -1.2865    4.7002   47.3827 H       1  ZINC000279593480    0.3700
     42 H42         0.4995    3.6997   50.0977 H       1  ZINC000279593480    0.0900
     43 H43        -0.5351    2.2695   50.4056 H       1  ZINC000279593480    0.0900
     44 H44         2.1703    2.0797   49.8060 H       1  ZINC000279593480    0.1000
     45 H45         0.9879    0.7983   49.3999 H       1  ZINC000279593480    0.0600
     46 H46         0.7565    2.4757   45.2573 H       1  ZINC000279593480    0.0600
     47 H47        -0.8584    3.1411   45.6007 H       1  ZINC000279593480    0.0700
     48 H48         0.5964    4.0074   46.1497 H       1  ZINC000279593480    0.0700
@<TRIPOS>BOND
     1     1     2    1
     2     1    26    1
     3     1    27    1
     4     1    28    1
     5     2     3    1
     6     2    29    1
     7     2    30    1
     8     3     4    1
     9     3     5    1
    10     3    13    1
    11     5     6    1
    12     5    31    1
    13     5    32    1
    14     6    12   ar
    15     6     7   ar
    16     7     8   ar
    17     7    33    1
    18     8     9   ar
    19     8    34    1
    20     9    10    1
    21     9    11   ar
    22    11    12   ar
    23    11    35    1
    24    12    36    1
    25    13    14   am
    26    13    37    1
    27    14    15    2
    28    14    16   am
    29    16    17    1
    30    16    38    1
    31    17    18    1
    32    17    39    1
    33    17    40    1
    34    18    23    1
    35    18    19    1
    36    18    20    1
    37    19    41    1
    38    20    21    1
    39    20    42    1
    40    20    43    1
    41    21    22    1
    42    21    44    1
    43    21    45    1
    44    22    23    1
    45    23    24    1
    46    23    25    1
    47    25    46    1
    48    25    47    1
    49    25    48    1
@<TRIPOS>SUBSTRUCTURE
     1 ZINC000279593480        1 TEMP              0 ****  ****    0 ROOT


##########                                Name:    ZINC000573650873
##########                DOCK_Rotatable_Bonds:                  10
##########                         Heavy_Atoms:                  28
##########                    Molecular_Weight:             418.843
##########                DOCK_Rotatable_Bonds:                  10
##########                       Formal_Charge:          -0.0500001
##########                     HBond_Acceptors:                   9
##########                        HBond_Donors:                   1
##########                         Heavy_Atoms:                  28
##########                          Grid_Score:          -28.167061
##########                     Grid_vdw_energy:          -27.590858
##########                      Grid_es_energy:           -0.576202
##########           Internal_energy_repulsive:           14.742630

@<TRIPOS>MOLECULE
ZINC000573650873
 50 51 1 0 0
SMALL
USER_CHARGES


@<TRIPOS>ATOM
      1 C1        -12.7818   -0.9504   56.2741 C.3     1  ZINC000573650873   -0.1400
      2 C2        -13.0160   -1.6165   54.9167 C.3     1  ZINC000573650873    0.0100
      3 C3        -12.9497   -3.1367   55.0763 C.3     1  ZINC000573650873   -0.1400
      4 C4        -14.3946   -1.2192   54.3849 C.3     1  ZINC000573650873   -0.1500
      5 C5        -11.9545   -1.1664   53.9464 C.2     1  ZINC000573650873   -0.0100
      6 C6        -10.6528   -0.9256   54.2272 C.2     1  ZINC000573650873   -0.1800
      7 C7        -10.0997   -0.5335   52.9764 C.2     1  ZINC000573650873   -0.0300
      8 C8         -8.6923   -0.1522   52.7045 C.2     1  ZINC000573650873    0.6000
      9 O9         -7.9275   -0.9602   52.2164 O.2     1  ZINC000573650873   -0.5100
     10 N10        -8.2620    1.0907   52.9988 N.am    1  ZINC000573650873   -0.5900
     11 C11        -6.8719    1.4673   52.7302 C.3     1  ZINC000573650873    0.1200
     12 C12        -6.8342    2.5212   51.6217 C.3     1  ZINC000573650873   -0.1000
     13 C13        -5.4389    2.6091   51.0593 C.ar    1  ZINC000573650873   -0.0800
     14 C14        -4.4121    3.1149   51.8346 C.ar    1  ZINC000573650873   -0.1000
     15 C15        -3.1321    3.1958   51.3194 C.ar    1  ZINC000573650873   -0.1100
     16 C16        -2.8786    2.7704   50.0276 C.ar    1  ZINC000573650873   -0.0400
     17 Cl17       -1.2710    2.8711   49.3800 Cl      1  ZINC000573650873   -0.0700
     18 C18        -3.9065    2.2643   49.2521 C.ar    1  ZINC000573650873   -0.1100
     19 C19        -5.1850    2.1787   49.7705 C.ar    1  ZINC000573650873   -0.1000
     20 C20        -9.1842    2.0650   53.5875 C.3     1  ZINC000573650873    0.0700
     21 C21        -9.0321    2.0559   55.1100 C.3     1  ZINC000573650873    0.0600
     22 H22        -9.0040    1.0262   55.4661 H       1  ZINC000573650873    0.1400
     23 O23        -7.8186    2.7183   55.4713 O.3     1  ZINC000573650873   -0.5200
     24 C24       -10.2190    2.7830   55.7453 C.3     1  ZINC000573650873    0.4300
     25 F25       -10.0694    2.7932   57.1362 F       1  ZINC000573650873   -0.1700
     26 F26       -10.2675    4.0985   55.2718 F       1  ZINC000573650873   -0.1700
     27 F27       -11.4052    2.1222   55.4086 F       1  ZINC000573650873   -0.1800
     28 N28       -11.0840   -0.5779   52.1134 N.2     1  ZINC000573650873   -0.3400
     29 O29       -12.1148   -0.9324   52.6366 O.3     1  ZINC000573650873    0.1300
     30 H30       -11.7997   -1.2334   56.6530 H       1  ZINC000573650873    0.0600
     31 H31       -12.8291    0.1326   56.1603 H       1  ZINC000573650873    0.0600
     32 H32       -13.5496   -1.2759   56.9759 H       1  ZINC000573650873    0.0700
     33 H33       -13.7175   -3.4621   55.7782 H       1  ZINC000573650873    0.0700
     34 H34       -13.1166   -3.6111   54.1094 H       1  ZINC000573650873    0.0600
     35 H35       -11.9676   -3.4197   55.4552 H       1  ZINC000573650873    0.0600
     36 H36       -14.4419   -0.1362   54.2711 H       1  ZINC000573650873    0.0600
     37 H37       -14.5615   -1.6937   53.4179 H       1  ZINC000573650873    0.0600
     38 H38       -15.1624   -1.5447   55.0868 H       1  ZINC000573650873    0.0700
     39 H39       -10.1506   -1.0109   55.1795 H       1  ZINC000573650873    0.1800
     40 H40        -6.4249    1.8768   53.6361 H       1  ZINC000573650873    0.0900
     41 H41        -6.3116    0.5874   52.4142 H       1  ZINC000573650873    0.1000
     42 H42        -7.5282    2.2402   50.8294 H       1  ZINC000573650873    0.0800
     43 H43        -7.1228    3.4895   52.0308 H       1  ZINC000573650873    0.0800
     44 H44        -4.6103    3.4473   52.8429 H       1  ZINC000573650873    0.1300
     45 H45        -2.3302    3.5913   51.9250 H       1  ZINC000573650873    0.1300
     46 H46        -3.7093    1.9323   48.2435 H       1  ZINC000573650873    0.1300
     47 H47        -5.9875    1.7833   49.1653 H       1  ZINC000573650873    0.1300
     48 H48        -8.9546    3.0595   53.2053 H       1  ZINC000573650873    0.1000
     49 H49       -10.2084    1.8017   53.3231 H       1  ZINC000573650873    0.1200
     50 H50        -7.0215    2.2983   55.1201 H       1  ZINC000573650873    0.3900
@<TRIPOS>BOND
     1     1     2    1
     2     1    30    1
     3     1    31    1
     4     1    32    1
     5     2     3    1
     6     2     4    1
     7     2     5    1
     8     3    33    1
     9     3    34    1
    10     3    35    1
    11     4    36    1
    12     4    37    1
    13     4    38    1
    14     5    29    1
    15     5     6    2
    16     6     7    1
    17     6    39    1
    18     7     8    1
    19     7    28    2
    20     8     9    2
    21     8    10   am
    22    10    11    1
    23    10    20    1
    24    11    12    1
    25    11    40    1
    26    11    41    1
    27    12    13    1
    28    12    42    1
    29    12    43    1
    30    13    19   ar
    31    13    14   ar
    32    14    15   ar
    33    14    44    1
    34    15    16   ar
    35    15    45    1
    36    16    17    1
    37    16    18   ar
    38    18    19   ar
    39    18    46    1
    40    19    47    1
    41    20    21    1
    42    20    48    1
    43    20    49    1
    44    21    22    1
    45    21    23    1
    46    21    24    1
    47    23    50    1
    48    24    25    1
    49    24    26    1
    50    24    27    1
    51    28    29    1
@<TRIPOS>SUBSTRUCTURE
     1 ZINC000573650873        1 TEMP              0 ****  ****    0 ROOT


##########                                Name:    ZINC001098311495
##########                DOCK_Rotatable_Bonds:                   8
##########                         Heavy_Atoms:                  24
##########                    Molecular_Weight:             328.454
##########                DOCK_Rotatable_Bonds:                   8
##########                       Formal_Charge:          0.00999987
##########                     HBond_Acceptors:                   4
##########                        HBond_Donors:                   1
##########                         Heavy_Atoms:                  24
##########                          Grid_Score:          -28.149891
##########                     Grid_vdw_energy:          -27.728010
##########                      Grid_es_energy:           -0.421882
##########           Internal_energy_repulsive:           26.854330

@<TRIPOS>MOLECULE
ZINC001098311495
 52 54 1 0 0
SMALL
USER_CHARGES


@<TRIPOS>ATOM
      1 C1         -0.8240    4.9482   53.8182 C.3     1  ZINC001098311495   -0.1500
      2 C2         -2.0016    4.0665   53.3978 C.3     1  ZINC001098311495    0.0500
      3 O3         -2.1555    4.1224   51.9782 O.3     1  ZINC001098311495   -0.2800
      4 C4         -3.1619    3.3901   51.4386 C.ar    1  ZINC001098311495    0.1900
      5 C5         -4.1577    2.8695   52.2511 C.ar    1  ZINC001098311495   -0.2200
      6 C6         -5.1780    2.1188   51.7011 C.ar    1  ZINC001098311495   -0.0500
      7 C7         -5.2191    1.8856   50.3364 C.ar    1  ZINC001098311495   -0.1700
      8 C8         -4.2409    2.4005   49.5131 C.ar    1  ZINC001098311495   -0.0500
      9 C9         -3.2031    3.1612   50.0562 C.ar    1  ZINC001098311495   -0.1800
     10 C10        -2.1527    3.7154   49.1808 C.2     1  ZINC001098311495    0.5600
     11 O11        -1.7504    4.8493   49.3568 O.2     1  ZINC001098311495   -0.5200
     12 N12        -1.6394    2.9650   48.1859 N.am    1  ZINC001098311495   -0.7200
     13 C13        -0.5953    3.5147   47.3177 C.3     1  ZINC001098311495    0.1600
     14 H14        -0.7870    4.5670   47.1079 H       1  ZINC001098311495    0.1000
     15 C15        -0.4960    2.7026   46.0031 C.3     1  ZINC001098311495   -0.1200
     16 C16         0.9561    2.1373   46.0328 C.3     1  ZINC001098311495    0.0500
     17 H17         1.1337    1.2633   45.4062 H       1  ZINC001098311495    0.1100
     18 C18         1.8893    3.3569   45.7671 C.3     1  ZINC001098311495   -0.1500
     19 C19         1.8021    4.1723   47.0804 C.3     1  ZINC001098311495   -0.1500
     20 C20         0.8101    3.3316   47.9661 C.3     1  ZINC001098311495    0.0400
     21 H21         0.8711    3.5117   49.0393 H       1  ZINC001098311495    0.1200
     22 N22         1.1572    1.9376   47.5123 N.3     1  ZINC001098311495   -0.4900
     23 C23         2.5591    1.6194   47.8148 C.3     1  ZINC001098311495    0.0600
     24 C24         2.6896    0.1452   48.0988 C.2     1  ZINC001098311495   -0.1600
     25 C25         2.4150   -0.3186   49.2929 C.2     1  ZINC001098311495   -0.1200
     26 C26         1.9686    0.6220   50.3823 C.3     1  ZINC001098311495   -0.1200
     27 C27         2.5455   -1.7929   49.5769 C.3     1  ZINC001098311495   -0.1200
     28 H28         0.0873    4.5897   53.3396 H       1  ZINC001098311495    0.0700
     29 H29        -1.0138    5.9774   53.5136 H       1  ZINC001098311495    0.0700
     30 H30        -0.7066    4.9055   54.9011 H       1  ZINC001098311495    0.0800
     31 H31        -2.9129    4.4249   53.8764 H       1  ZINC001098311495    0.0600
     32 H32        -1.8118    3.0372   53.7024 H       1  ZINC001098311495    0.0600
     33 H33        -4.1327    3.0474   53.3160 H       1  ZINC001098311495    0.1300
     34 H34        -5.9486    1.7114   52.3387 H       1  ZINC001098311495    0.1300
     35 H35        -6.0214    1.2977   49.9155 H       1  ZINC001098311495    0.1300
     36 H36        -4.2768    2.2158   48.4496 H       1  ZINC001098311495    0.1300
     37 H37        -1.9613    2.0609   48.0447 H       1  ZINC001098311495    0.4000
     38 H38        -0.6374    3.3521   45.1392 H       1  ZINC001098311495    0.0800
     39 H39        -1.2237    1.8912   45.9975 H       1  ZINC001098311495    0.0800
     40 H40         2.9122    3.0256   45.5882 H       1  ZINC001098311495    0.0700
     41 H41         1.5225    3.9446   44.9254 H       1  ZINC001098311495    0.0800
     42 H42         2.7819    4.2451   47.5526 H       1  ZINC001098311495    0.0700
     43 H43         1.3922    5.1642   46.8899 H       1  ZINC001098311495    0.0800
     44 H44         2.8804    2.1874   48.6879 H       1  ZINC001098311495    0.0500
     45 H45         3.1836    1.8816   46.9608 H       1  ZINC001098311495    0.0800
     46 H46         3.0094   -0.5290   47.3181 H       1  ZINC001098311495    0.1100
     47 H47         2.8397    0.9893   50.9247 H       1  ZINC001098311495    0.0700
     48 H48         1.3083    0.0940   51.0702 H       1  ZINC001098311495    0.0600
     49 H49         1.4348    1.4631   49.9399 H       1  ZINC001098311495    0.0600
     50 H50         1.6281   -2.3023   49.2820 H       1  ZINC001098311495    0.0700
     51 H51         3.3843   -2.1990   49.0117 H       1  ZINC001098311495    0.0600
     52 H52         2.7183   -1.9436   50.6425 H       1  ZINC001098311495    0.0600
@<TRIPOS>BOND
     1     1     2    1
     2     1    28    1
     3     1    29    1
     4     1    30    1
     5     2     3    1
     6     2    31    1
     7     2    32    1
     8     3     4    1
     9     4     9   ar
    10     4     5   ar
    11     5     6   ar
    12     5    33    1
    13     6     7   ar
    14     6    34    1
    15     7     8   ar
    16     7    35    1
    17     8     9   ar
    18     8    36    1
    19     9    10    1
    20    10    11    2
    21    10    12   am
    22    12    13    1
    23    12    37    1
    24    13    14    1
    25    13    20    1
    26    13    15    1
    27    15    16    1
    28    15    38    1
    29    15    39    1
    30    16    17    1
    31    16    22    1
    32    16    18    1
    33    18    19    1
    34    18    40    1
    35    18    41    1
    36    19    20    1
    37    19    42    1
    38    19    43    1
    39    20    21    1
    40    20    22    1
    41    22    23    1
    42    23    24    1
    43    23    44    1
    44    23    45    1
    45    24    25    2
    46    24    46    1
    47    25    26    1
    48    25    27    1
    49    26    47    1
    50    26    48    1
    51    26    49    1
    52    27    50    1
    53    27    51    1
    54    27    52    1
@<TRIPOS>SUBSTRUCTURE
     1 ZINC001098311495        1 TEMP              0 ****  ****    0 ROOT


##########                                Name:    ZINC001456096501
##########                DOCK_Rotatable_Bonds:                   7
##########                         Heavy_Atoms:                  24
##########                    Molecular_Weight:             333.431
##########                DOCK_Rotatable_Bonds:                   7
##########                       Formal_Charge:          -0.0200003
##########                     HBond_Acceptors:                   6
##########                        HBond_Donors:                   0
##########                         Heavy_Atoms:                  24
##########                          Grid_Score:          -28.142899
##########                     Grid_vdw_energy:          -25.857119
##########                      Grid_es_energy:           -2.285781
##########           Internal_energy_repulsive:          128.649918

@<TRIPOS>MOLECULE
ZINC001456096501
 51 52 1 0 0
SMALL
USER_CHARGES


@<TRIPOS>ATOM
      1 C1         -4.7801    1.7009   50.9612 C.3     1  ZINC001456096501    0.0400
      2 O2         -4.5194    2.9115   50.2481 O.3     1  ZINC001456096501   -0.2900
      3 C3         -3.3813    2.9608   49.5157 C.ar    1  ZINC001456096501    0.3700
      4 N4         -3.1998    2.1042   48.5252 N.ar    1  ZINC001456096501   -0.5400
      5 C5         -2.1070    2.1171   47.7865 C.ar    1  ZINC001456096501    0.1600
      6 C6         -1.0970    3.0333   48.0177 C.ar    1  ZINC001456096501   -0.2200
      7 C7         -1.2343    3.9535   49.0421 C.ar    1  ZINC001456096501   -0.0200
      8 C8         -2.4044    3.9244   49.8091 C.ar    1  ZINC001456096501   -0.2000
      9 C9         -2.6028    4.8828   50.9131 C.2     1  ZINC001456096501    0.5900
     10 O10        -3.2431    5.8996   50.7277 O.2     1  ZINC001456096501   -0.5100
     11 N11        -2.0743    4.6312   52.1271 N.am    1  ZINC001456096501   -0.6200
     12 C12        -1.2823    3.4462   52.4879 C.3     1  ZINC001456096501    0.1000
     13 C13        -0.9157    3.5776   53.9812 C.3     1  ZINC001456096501   -0.1200
     14 C14        -1.9985    4.5489   54.5208 C.3     1  ZINC001456096501   -0.1200
     15 H15        -2.9210    4.0163   54.7520 H       1  ZINC001456096501    0.0900
     16 C16        -1.4887    5.3136   55.7441 C.3     1  ZINC001456096501    0.1200
     17 N17        -1.2570    4.3750   56.8448 N.am    1  ZINC001456096501   -0.6200
     18 C18        -2.2550    3.3481   57.1542 C.3     1  ZINC001456096501    0.0600
     19 C19        -0.1256    4.4561   57.5727 C.2     1  ZINC001456096501    0.5200
     20 O20         0.7006    5.3062   57.3167 O.2     1  ZINC001456096501   -0.5300
     21 C21         0.1127    3.4906   58.7050 C.3     1  ZINC001456096501   -0.0800
     22 C22        -0.8138    3.8354   59.8728 C.3     1  ZINC001456096501   -0.1300
     23 C23        -0.1753    2.0653   58.2292 C.3     1  ZINC001456096501   -0.1500
     24 C24         1.5692    3.5909   59.1628 C.3     1  ZINC001456096501   -0.1700
     25 C25        -2.1891    5.5016   53.3114 C.3     1  ZINC001456096501    0.1200
     26 H26        -4.8489    0.8719   50.2568 H       1  ZINC001456096501    0.0600
     27 H27        -3.9700    1.5126   51.6658 H       1  ZINC001456096501    0.0600
     28 H28        -5.7201    1.7947   51.5049 H       1  ZINC001456096501    0.1000
     29 H29        -1.9988    1.3992   46.9871 H       1  ZINC001456096501    0.1700
     30 H30        -0.2083    3.0304   47.4040 H       1  ZINC001456096501    0.1500
     31 H31        -0.4593    4.6785   49.2423 H       1  ZINC001456096501    0.1500
     32 H32        -1.8722    2.5435   52.3290 H       1  ZINC001456096501    0.0700
     33 H33        -0.3748    3.4093   51.8853 H       1  ZINC001456096501    0.0700
     34 H34        -0.9812    2.6110   54.4808 H       1  ZINC001456096501    0.0900
     35 H35         0.0797    4.0063   54.0976 H       1  ZINC001456096501    0.0800
     36 H36        -0.5555    5.8181   55.4942 H       1  ZINC001456096501    0.0800
     37 H37        -2.2314    6.0519   56.0464 H       1  ZINC001456096501    0.0900
     38 H38        -2.0086    2.4297   56.6214 H       1  ZINC001456096501    0.0600
     39 H39        -2.2581    3.1560   58.2272 H       1  ZINC001456096501    0.0900
     40 H40        -3.2409    3.6945   56.8442 H       1  ZINC001456096501    0.0700
     41 H41        -1.8514    3.7640   59.5467 H       1  ZINC001456096501    0.0600
     42 H42        -0.6414    3.1371   60.6917 H       1  ZINC001456096501    0.0600
     43 H43        -0.6086    4.8509   60.2117 H       1  ZINC001456096501    0.0600
     44 H44         0.3884    1.8657   57.3178 H       1  ZINC001456096501    0.0700
     45 H45         0.1216    1.3570   59.0026 H       1  ZINC001456096501    0.0700
     46 H46        -1.2412    1.9578   58.0280 H       1  ZINC001456096501    0.0600
     47 H47         1.7744    4.6063   59.5018 H       1  ZINC001456096501    0.0600
     48 H48         1.7415    2.8926   59.9818 H       1  ZINC001456096501    0.0700
     49 H49         2.2292    3.3452   58.3308 H       1  ZINC001456096501    0.0800
     50 H50        -1.4117    6.2656   53.3040 H       1  ZINC001456096501    0.0800
     51 H51        -3.1759    5.9635   53.3441 H       1  ZINC001456096501    0.0700
@<TRIPOS>BOND
     1     1     2    1
     2     1    26    1
     3     1    27    1
     4     1    28    1
     5     2     3    1
     6     3     8   ar
     7     3     4   ar
     8     4     5   ar
     9     5     6   ar
    10     5    29    1
    11     6     7   ar
    12     6    30    1
    13     7     8   ar
    14     7    31    1
    15     8     9    1
    16     9    10    2
    17     9    11   am
    18    11    25    1
    19    11    12    1
    20    12    13    1
    21    12    32    1
    22    12    33    1
    23    13    14    1
    24    13    34    1
    25    13    35    1
    26    14    15    1
    27    14    16    1
    28    14    25    1
    29    16    17    1
    30    16    36    1
    31    16    37    1
    32    17    18    1
    33    17    19   am
    34    18    38    1
    35    18    39    1
    36    18    40    1
    37    19    20    2
    38    19    21    1
    39    21    22    1
    40    21    23    1
    41    21    24    1
    42    22    41    1
    43    22    42    1
    44    22    43    1
    45    23    44    1
    46    23    45    1
    47    23    46    1
    48    24    47    1
    49    24    48    1
    50    24    49    1
    51    25    50    1
    52    25    51    1
@<TRIPOS>SUBSTRUCTURE
     1 ZINC001456096501        1 TEMP              0 ****  ****    0 ROOT


##########                                Name:    ZINC000676564986
##########                DOCK_Rotatable_Bonds:                   5
##########                         Heavy_Atoms:                  25
##########                    Molecular_Weight:             347.444
##########                DOCK_Rotatable_Bonds:                   5
##########                       Formal_Charge:          -0.0100005
##########                     HBond_Acceptors:                   6
##########                        HBond_Donors:                   1
##########                         Heavy_Atoms:                  25
##########                          Grid_Score:          -28.131287
##########                     Grid_vdw_energy:          -28.107758
##########                      Grid_es_energy:           -0.023529
##########           Internal_energy_repulsive:            5.654546

@<TRIPOS>MOLECULE
ZINC000676564986
 42 45 1 0 0
SMALL
USER_CHARGES


@<TRIPOS>ATOM
      1 C1         -1.0839    3.7807   47.7469 C.3     1  ZINC000676564986    0.0800
      2 N2         -2.1780    3.2391   48.5569 N.pl3   1  ZINC000676564986   -0.4800
      3 C3         -2.8155    2.0505   48.3600 C.2     1  ZINC000676564986    0.2500
      4 N4         -3.7366    1.8848   49.2643 N.2     1  ZINC000676564986   -0.4600
      5 C5         -3.7488    2.9536   50.0966 C.ar    1  ZINC000676564986   -0.1100
      6 C6         -4.5045    3.3203   51.2229 C.ar    1  ZINC000676564986    0.5100
      7 N7         -5.5024    2.4922   51.7063 N.pl3   1  ZINC000676564986   -0.6900
      8 C8         -6.6365    3.0618   52.4380 C.3     1  ZINC000676564986    0.1700
      9 C9         -7.7941    2.0975   52.4002 C.ar    1  ZINC000676564986   -0.0800
     10 C10        -9.0853    2.5627   52.5703 C.ar    1  ZINC000676564986   -0.1100
     11 C11       -10.1483    1.6821   52.5362 C.ar    1  ZINC000676564986   -0.0700
     12 C12        -9.9194    0.3268   52.3310 C.ar    1  ZINC000676564986   -0.1300
     13 S13       -11.2727   -0.8006   52.2863 S.3     1  ZINC000676564986   -0.0100
     14 C14       -11.3124   -1.4377   53.9286 C.ar    1  ZINC000676564986   -0.1000
     15 C15       -10.8066   -0.6834   54.9806 C.ar    1  ZINC000676564986   -0.1200
     16 C16       -10.8398   -1.1857   56.2664 C.ar    1  ZINC000676564986   -0.1000
     17 C17       -11.3755   -2.4377   56.5080 C.ar    1  ZINC000676564986   -0.1200
     18 C18       -11.8796   -3.1911   55.4635 C.ar    1  ZINC000676564986   -0.1000
     19 C19       -11.8545   -2.6931   54.1758 C.ar    1  ZINC000676564986   -0.1000
     20 C20        -8.6205   -0.1370   52.1606 C.ar    1  ZINC000676564986   -0.0700
     21 C21        -7.5628    0.7501   52.1901 C.ar    1  ZINC000676564986   -0.1100
     22 N22        -4.2386    4.4809   51.8135 N.ar    1  ZINC000676564986   -0.5900
     23 C23        -3.2881    5.2772   51.3596 C.ar    1  ZINC000676564986    0.3600
     24 N24        -2.5556    4.9752   50.3081 N.ar    1  ZINC000676564986   -0.5600
     25 C25        -2.7449    3.8328   49.6563 C.ar    1  ZINC000676564986    0.3000
     26 H26        -0.1301    3.4434   48.1525 H       1  ZINC000676564986    0.0800
     27 H27        -1.1854    3.4317   46.7192 H       1  ZINC000676564986    0.0900
     28 H28        -1.1221    4.8699   47.7663 H       1  ZINC000676564986    0.0900
     29 H29        -2.5899    1.3498   47.5697 H       1  ZINC000676564986    0.2200
     30 H30        -5.4509    1.5346   51.5607 H       1  ZINC000676564986    0.4200
     31 H31        -6.3474    3.2420   53.4734 H       1  ZINC000676564986    0.0800
     32 H32        -6.9324    4.0029   51.9744 H       1  ZINC000676564986    0.0800
     33 H33        -9.2625    3.6161   52.7300 H       1  ZINC000676564986    0.1300
     34 H34       -11.1564    2.0460   52.6694 H       1  ZINC000676564986    0.1400
     35 H35       -10.3879    0.2942   54.7927 H       1  ZINC000676564986    0.1200
     36 H36       -10.4467   -0.6002   57.0844 H       1  ZINC000676564986    0.1300
     37 H37       -11.3998   -2.8281   57.5146 H       1  ZINC000676564986    0.1300
     38 H38       -12.2971   -4.1683   55.6557 H       1  ZINC000676564986    0.1300
     39 H39       -12.2487   -3.2818   53.3607 H       1  ZINC000676564986    0.1300
     40 H40        -8.4389   -1.1896   52.0008 H       1  ZINC000676564986    0.1300
     41 H41        -6.5532    0.3904   52.0578 H       1  ZINC000676564986    0.1300
     42 H42        -3.1050    6.2114   51.8695 H       1  ZINC000676564986    0.2000
@<TRIPOS>BOND
     1     1     2    1
     2     1    26    1
     3     1    27    1
     4     1    28    1
     5     2    25    1
     6     2     3    1
     7     3     4    2
     8     3    29    1
     9     4     5    1
    10     5    25   ar
    11     5     6   ar
    12     6     7    1
    13     6    22   ar
    14     7     8    1
    15     7    30    1
    16     8     9    1
    17     8    31    1
    18     8    32    1
    19     9    21   ar
    20     9    10   ar
    21    10    11   ar
    22    10    33    1
    23    11    12   ar
    24    11    34    1
    25    12    13    1
    26    12    20   ar
    27    13    14    1
    28    14    19   ar
    29    14    15   ar
    30    15    16   ar
    31    15    35    1
    32    16    17   ar
    33    16    36    1
    34    17    18   ar
    35    17    37    1
    36    18    19   ar
    37    18    38    1
    38    19    39    1
    39    20    21   ar
    40    20    40    1
    41    21    41    1
    42    22    23   ar
    43    23    24   ar
    44    23    42    1
    45    24    25   ar
@<TRIPOS>SUBSTRUCTURE
     1 ZINC000676564986        1 TEMP              0 ****  ****    0 ROOT


##########                                Name:    ZINC001356153960
##########                DOCK_Rotatable_Bonds:                   8
##########                         Heavy_Atoms:                  24
##########                    Molecular_Weight:             334.366
##########                DOCK_Rotatable_Bonds:                   8
##########                       Formal_Charge:           0.0100003
##########                     HBond_Acceptors:                   6
##########                        HBond_Donors:                   1
##########                         Heavy_Atoms:                  24
##########                          Grid_Score:          -28.127085
##########                     Grid_vdw_energy:          -27.151556
##########                      Grid_es_energy:           -0.975528
##########           Internal_energy_repulsive:           15.674135

@<TRIPOS>MOLECULE
ZINC001356153960
 44 46 1 0 0
SMALL
USER_CHARGES


@<TRIPOS>ATOM
      1 O1         -3.5048    2.4153   51.4955 O.2     1  ZINC001356153960   -0.5200
      2 C2         -3.8024    2.7434   50.3658 C.2     1  ZINC001356153960    0.5100
      3 N3         -5.0534    3.1647   50.0939 N.am    1  ZINC001356153960   -0.7000
      4 C4         -6.0522    3.2323   51.1634 C.3     1  ZINC001356153960    0.1300
      5 C5         -7.0182    2.0527   51.0345 C.3     1  ZINC001356153960   -0.0800
      6 H6         -7.5044    2.0660   50.0592 H       1  ZINC001356153960    0.0900
      7 C7         -6.2852    0.7473   51.2397 C.2     1  ZINC001356153960   -0.1700
      8 C8         -6.9578   -0.0513   52.0229 C.2     1  ZINC001356153960   -0.1600
      9 C9         -8.2515    0.5883   52.4707 C.3     1  ZINC001356153960   -0.1000
     10 C10        -8.0740    2.0953   52.1634 C.3     1  ZINC001356153960   -0.1200
     11 C11        -2.7835    2.6744   49.2747 C.2     1  ZINC001356153960    0.5100
     12 O12        -2.9560    1.9334   48.3293 O.2     1  ZINC001356153960   -0.5100
     13 N13        -1.6730    3.4354   49.3406 N.am    1  ZINC001356153960   -0.5500
     14 C14        -0.6742    3.3679   48.2710 C.3     1  ZINC001356153960    0.1300
     15 C15         0.2117    2.1679   48.4859 C.ar    1  ZINC001356153960   -0.1600
     16 C16         0.6597    1.8587   49.7560 C.ar    1  ZINC001356153960   -0.0300
     17 C17         1.4677    0.7550   49.9555 C.ar    1  ZINC001356153960   -0.1700
     18 C18         1.8384   -0.0354   48.8810 C.ar    1  ZINC001356153960    0.1400
     19 F19         2.6323   -1.1111   49.0754 F       1  ZINC001356153960   -0.1300
     20 C20         1.3948    0.2767   47.6071 C.ar    1  ZINC001356153960   -0.2000
     21 C21         0.5812    1.3786   47.4095 C.ar    1  ZINC001356153960    0.1500
     22 F22         0.1479    1.6846   46.1670 F       1  ZINC001356153960   -0.1200
     23 C23        -1.4648    4.3302   50.4818 C.3     1  ZINC001356153960    0.0700
     24 C24        -2.4730    5.4632   50.6842 C.3     1  ZINC001356153960   -0.1900
     25 C25        -1.0610    5.7752   50.1820 C.3     1  ZINC001356153960   -0.1800
     26 H26        -5.2924    3.4231   49.1901 H       1  ZINC001356153960    0.4100
     27 H27        -5.5521    3.1883   52.1310 H       1  ZINC001356153960    0.0800
     28 H28        -6.6074    4.1670   51.0836 H       1  ZINC001356153960    0.0800
     29 H29        -5.3301    0.5070   50.7967 H       1  ZINC001356153960    0.1200
     30 H30        -6.6324   -1.0392   52.3131 H       1  ZINC001356153960    0.1300
     31 H31        -9.0909    0.1835   51.9054 H       1  ZINC001356153960    0.0800
     32 H32        -8.4029    0.4313   53.5387 H       1  ZINC001356153960    0.0700
     33 H33        -7.6945    2.6298   53.0343 H       1  ZINC001356153960    0.0800
     34 H34        -9.0062    2.5370   51.8110 H       1  ZINC001356153960    0.0800
     35 H35        -1.1779    3.2799   47.3085 H       1  ZINC001356153960    0.0900
     36 H36        -0.0680    4.2737   48.2824 H       1  ZINC001356153960    0.1400
     37 H37         0.3750    2.4775   50.5941 H       1  ZINC001356153960    0.1600
     38 H38         1.8140    0.5120   50.9492 H       1  ZINC001356153960    0.1400
     39 H39         1.6837   -0.3392   46.7683 H       1  ZINC001356153960    0.1500
     40 H40        -1.0449    3.8649   51.3735 H       1  ZINC001356153960    0.1400
     41 H41        -3.2911    5.5428   49.9683 H       1  ZINC001356153960    0.1400
     42 H42        -2.7159    5.7435   51.7091 H       1  ZINC001356153960    0.0900
     43 H43        -0.3756    6.2606   50.8768 H       1  ZINC001356153960    0.1000
     44 H44        -0.9502    6.0601   49.1357 H       1  ZINC001356153960    0.0900
@<TRIPOS>BOND
     1     1     2    2
     2     2     3   am
     3     2    11    1
     4     3     4    1
     5     3    26    1
     6     4     5    1
     7     4    27    1
     8     4    28    1
     9     5     6    1
    10     5    10    1
    11     5     7    1
    12     7     8    2
    13     7    29    1
    14     8     9    1
    15     8    30    1
    16     9    10    1
    17     9    31    1
    18     9    32    1
    19    10    33    1
    20    10    34    1
    21    11    12    2
    22    11    13   am
    23    13    14    1
    24    13    23    1
    25    14    15    1
    26    14    35    1
    27    14    36    1
    28    15    21   ar
    29    15    16   ar
    30    16    17   ar
    31    16    37    1
    32    17    18   ar
    33    17    38    1
    34    18    19    1
    35    18    20   ar
    36    20    21   ar
    37    20    39    1
    38    21    22    1
    39    23    25    1
    40    23    24    1
    41    23    40    1
    42    24    25    1
    43    24    41    1
    44    24    42    1
    45    25    43    1
    46    25    44    1
@<TRIPOS>SUBSTRUCTURE
     1 ZINC001356153960        1 TEMP              0 ****  ****    0 ROOT


##########                                Name:    ZINC000430767928
##########                DOCK_Rotatable_Bonds:                   4
##########                         Heavy_Atoms:                  25
##########                    Molecular_Weight:             358.505
##########                DOCK_Rotatable_Bonds:                   4
##########                       Formal_Charge:          -0.0100002
##########                     HBond_Acceptors:                   5
##########                        HBond_Donors:                   0
##########                         Heavy_Atoms:                  25
##########                          Grid_Score:          -28.124340
##########                     Grid_vdw_energy:          -27.770241
##########                      Grid_es_energy:           -0.354100
##########           Internal_energy_repulsive:           19.014290

@<TRIPOS>MOLECULE
ZINC000430767928
 51 55 1 0 0
SMALL
USER_CHARGES


@<TRIPOS>ATOM
      1 O1          2.7754    3.8254   47.7209 O.2     1  ZINC000430767928   -0.4600
      2 C2          1.8586    3.0695   47.4805 C.2     1  ZINC000430767928    0.5300
      3 C3          0.3964    3.4181   47.3402 C.3     1  ZINC000430767928    0.0400
      4 H4          0.1789    3.9678   46.4243 H       1  ZINC000430767928    0.1400
      5 C5         -0.1420    4.1221   48.6027 C.3     1  ZINC000430767928   -0.1100
      6 C6         -1.6196    3.6549   48.6386 C.3     1  ZINC000430767928   -0.1000
      7 H7         -2.2661    4.4067   48.1859 H       1  ZINC000430767928    0.1000
      8 C8         -2.0552    3.3777   50.0789 C.3     1  ZINC000430767928   -0.0800
      9 C9         -1.8392    4.6322   50.9276 C.3     1  ZINC000430767928   -0.1100
     10 C10        -2.2748    4.3549   52.3679 C.3     1  ZINC000430767928   -0.1200
     11 C11        -3.7566    3.9743   52.3882 C.3     1  ZINC000430767928   -0.1200
     12 C12        -3.9727    2.7198   51.5394 C.3     1  ZINC000430767928   -0.1200
     13 C13        -3.5370    2.9972   50.0992 C.3     1  ZINC000430767928   -0.1200
     14 C14        -1.6446    2.3539   47.8074 C.3     1  ZINC000430767928    0.1600
     15 N15        -0.2587    2.0809   47.3915 N.am    1  ZINC000430767928   -0.6400
     16 C16         0.7011    1.2001   47.0916 C.2     1  ZINC000430767928    0.7400
     17 O17         0.4925    0.0616   46.7206 O.2     1  ZINC000430767928   -0.5100
     18 N18         1.9279    1.7355   47.2751 N.am    1  ZINC000430767928   -0.5800
     19 C19         3.1753    0.9673   47.2614 C.3     1  ZINC000430767928    0.2600
     20 H20         4.0220    1.6478   47.3521 H       1  ZINC000430767928    0.1200
     21 C21         3.1823   -0.0001   48.4167 C.2     1  ZINC000430767928   -0.2100
     22 C22         3.9157    0.1290   49.5234 C.2     1  ZINC000430767928   -0.1200
     23 C23         3.7562   -0.8863   50.4507 C.2     1  ZINC000430767928   -0.1400
     24 C24         2.8932   -1.8400   50.0969 C.2     1  ZINC000430767928   -0.2300
     25 S25         2.2189   -1.4684   48.5156 S.3     1  ZINC000430767928    0.1700
     26 C26         3.2824    0.1923   45.9466 C.3     1  ZINC000430767928   -0.1700
     27 C27         4.3545    0.6372   44.9496 C.3     1  ZINC000430767928   -0.1700
     28 C28         4.5309   -0.6658   45.7321 C.3     1  ZINC000430767928   -0.1600
     29 H29         0.3924    3.7862   49.4914 H       1  ZINC000430767928    0.0800
     30 H30        -0.0804    5.2054   48.4985 H       1  ZINC000430767928    0.1000
     31 H31        -1.4639    2.5574   50.4858 H       1  ZINC000430767928    0.0700
     32 H32        -0.7835    4.9033   50.9131 H       1  ZINC000430767928    0.0600
     33 H33        -2.4306    5.4524   50.5207 H       1  ZINC000430767928    0.0700
     34 H34        -1.6834    3.5346   52.7747 H       1  ZINC000430767928    0.0600
     35 H35        -2.1209    5.2486   52.9725 H       1  ZINC000430767928    0.0600
     36 H36        -4.0670    3.7768   53.4141 H       1  ZINC000430767928    0.0600
     37 H37        -4.3480    4.7945   51.9812 H       1  ZINC000430767928    0.0600
     38 H38        -3.3813    1.8995   51.9462 H       1  ZINC000430767928    0.0600
     39 H39        -5.0283    2.4487   51.5538 H       1  ZINC000430767928    0.0600
     40 H40        -4.1284    3.8174   49.6922 H       1  ZINC000430767928    0.0700
     41 H41        -3.6909    2.1034   49.4946 H       1  ZINC000430767928    0.0600
     42 H42        -2.0274    1.5319   48.4123 H       1  ZINC000430767928    0.0900
     43 H43        -2.2669    2.4882   46.9227 H       1  ZINC000430767928    0.0800
     44 H44         4.5836    0.9624   49.6837 H       1  ZINC000430767928    0.1400
     45 H45         4.2902   -0.9051   51.3891 H       1  ZINC000430767928    0.1400
     46 H46         2.6440   -2.7061   50.6922 H       1  ZINC000430767928    0.1600
     47 H47         2.3410   -0.1788   45.5415 H       1  ZINC000430767928    0.1200
     48 H48         4.1184    0.5589   43.8884 H       1  ZINC000430767928    0.1000
     49 H49         4.9833    1.4819   45.2305 H       1  ZINC000430767928    0.1000
     50 H50         5.2759   -0.6781   46.5277 H       1  ZINC000430767928    0.1000
     51 H51         4.4109   -1.6012   45.1855 H       1  ZINC000430767928    0.1000
@<TRIPOS>BOND
     1     1     2    2
     2     2    18   am
     3     2     3    1
     4     3     4    1
     5     3    15    1
     6     3     5    1
     7     5     6    1
     8     5    29    1
     9     5    30    1
    10     6     7    1
    11     6     8    1
    12     6    14    1
    13     8    13    1
    14     8     9    1
    15     8    31    1
    16     9    10    1
    17     9    32    1
    18     9    33    1
    19    10    11    1
    20    10    34    1
    21    10    35    1
    22    11    12    1
    23    11    36    1
    24    11    37    1
    25    12    13    1
    26    12    38    1
    27    12    39    1
    28    13    40    1
    29    13    41    1
    30    14    15    1
    31    14    42    1
    32    14    43    1
    33    15    16   am
    34    16    17    2
    35    16    18   am
    36    18    19    1
    37    19    20    1
    38    19    21    1
    39    19    26    1
    40    21    25    1
    41    21    22    2
    42    22    23    1
    43    22    44    1
    44    23    24    2
    45    23    45    1
    46    24    25    1
    47    24    46    1
    48    26    28    1
    49    26    27    1
    50    26    47    1
    51    27    28    1
    52    27    48    1
    53    27    49    1
    54    28    50    1
    55    28    51    1
@<TRIPOS>SUBSTRUCTURE
     1 ZINC000430767928        1 TEMP              0 ****  ****    0 ROOT


##########                                Name:    ZINC000915315870
##########                DOCK_Rotatable_Bonds:                   4
##########                         Heavy_Atoms:                  24
##########                    Molecular_Weight:             357.381
##########                DOCK_Rotatable_Bonds:                   4
##########                       Formal_Charge:           0.0300002
##########                     HBond_Acceptors:                   9
##########                        HBond_Donors:                   1
##########                         Heavy_Atoms:                  24
##########                          Grid_Score:          -28.118511
##########                     Grid_vdw_energy:          -26.392403
##########                      Grid_es_energy:           -1.726108
##########           Internal_energy_repulsive:           35.572388

@<TRIPOS>MOLECULE
ZINC000915315870
 41 43 1 0 0
SMALL
USER_CHARGES


@<TRIPOS>ATOM
      1 C1          0.1819    1.9089   57.5206 C.3     1  ZINC000915315870    0.0300
      2 O2          0.3668    2.5815   56.2734 O.3     1  ZINC000915315870   -0.3200
      3 C3         -0.7053    3.2473   55.7661 C.ar    1  ZINC000915315870    0.0800
      4 C4         -0.5933    3.9332   54.5642 C.ar    1  ZINC000915315870    0.0900
      5 F5          0.5811    3.9398   53.8963 F       1  ZINC000915315870   -0.1100
      6 C6         -1.6858    4.6095   54.0508 C.ar    1  ZINC000915315870   -0.0500
      7 C7         -2.8879    4.6033   54.7336 C.ar    1  ZINC000915315870   -0.6300
      8 S8         -4.2766    5.4663   54.0768 S.o2    1  ZINC000915315870    2.7000
      9 O9         -5.4062    5.0371   54.8246 O.2     1  ZINC000915315870   -0.9400
     10 O10        -3.8879    6.8289   53.9689 O.2     1  ZINC000915315870   -0.9400
     11 N11        -4.5054    4.9214   52.5298 N.am    1  ZINC000915315870   -1.1100
     12 C12        -4.7778    3.5029   52.2856 C.3     1  ZINC000915315870    0.2400
     13 H13        -4.3217    2.9004   53.0710 H       1  ZINC000915315870    0.0900
     14 C14        -6.2927    3.2631   52.2632 C.3     1  ZINC000915315870   -0.1400
     15 C15        -6.5835    1.8438   51.7706 C.3     1  ZINC000915315870   -0.1100
     16 C16        -6.2915    1.7466   50.2680 C.3     1  ZINC000915315870   -0.0400
     17 C17        -4.9096    2.3006   50.0193 C.2     1  ZINC000915315870    0.0900
     18 N18        -4.1562    2.1468   48.9696 N.2     1  ZINC000915315870   -0.2900
     19 N19        -2.9564    2.8408   49.1879 N.pl3   1  ZINC000915315870   -0.3800
     20 C20        -1.8297    2.9274   48.2556 C.3     1  ZINC000915315870    0.1000
     21 C21        -3.0231    3.4161   50.4096 C.2     1  ZINC000915315870    0.0800
     22 C22        -4.2163    3.1003   50.9442 C.2     1  ZINC000915315870   -0.2500
     23 C23        -3.0029    3.9209   55.9304 C.ar    1  ZINC000915315870   -0.0500
     24 C24        -1.9157    3.2377   56.4463 C.ar    1  ZINC000915315870    0.1000
     25 F25        -2.0287    2.5711   57.6159 F       1  ZINC000915315870   -0.1100
     26 H26         1.1117    1.4198   57.8109 H       1  ZINC000915315870    0.1100
     27 H27        -0.1021    2.6323   58.2849 H       1  ZINC000915315870    0.0600
     28 H28        -0.6049    1.1616   57.4173 H       1  ZINC000915315870    0.0500
     29 H29        -1.5992    5.1433   53.1159 H       1  ZINC000915315870    0.1700
     30 H30        -4.4592    5.5416   51.7853 H       1  ZINC000915315870    0.4200
     31 H31        -6.6944    3.3874   53.2688 H       1  ZINC000915315870    0.0900
     32 H32        -6.7638    3.9829   51.5938 H       1  ZINC000915315870    0.0800
     33 H33        -5.9522    1.1368   52.3090 H       1  ZINC000915315870    0.0700
     34 H34        -7.6312    1.6045   51.9525 H       1  ZINC000915315870    0.0800
     35 H35        -6.3322    0.7042   49.9523 H       1  ZINC000915315870    0.0800
     36 H36        -7.0267    2.3287   49.7122 H       1  ZINC000915315870    0.0900
     37 H37        -1.9619    3.7919   47.6052 H       1  ZINC000915315870    0.0800
     38 H38        -0.9012    3.0335   48.8167 H       1  ZINC000915315870    0.0900
     39 H39        -1.7876    2.0212   47.6514 H       1  ZINC000915315870    0.0900
     40 H40        -2.2568    4.0201   50.8728 H       1  ZINC000915315870    0.1700
     41 H41        -3.9433    3.9175   56.4613 H       1  ZINC000915315870    0.1700
@<TRIPOS>BOND
     1     1     2    1
     2     1    26    1
     3     1    27    1
     4     1    28    1
     5     2     3    1
     6     3    24   ar
     7     3     4   ar
     8     4     5    1
     9     4     6   ar
    10     6     7   ar
    11     6    29    1
    12     7     8    1
    13     7    23   ar
    14     8     9    2
    15     8    10    2
    16     8    11   am
    17    11    12    1
    18    11    30    1
    19    12    13    1
    20    12    22    1
    21    12    14    1
    22    14    15    1
    23    14    31    1
    24    14    32    1
    25    15    16    1
    26    15    33    1
    27    15    34    1
    28    16    17    1
    29    16    35    1
    30    16    36    1
    31    17    22    1
    32    17    18    2
    33    18    19    1
    34    19    20    1
    35    19    21    1
    36    20    37    1
    37    20    38    1
    38    20    39    1
    39    21    22    2
    40    21    40    1
    41    23    24   ar
    42    23    41    1
    43    24    25    1
@<TRIPOS>SUBSTRUCTURE
     1 ZINC000915315870        1 TEMP              0 ****  ****    0 ROOT


##########                                Name:    ZINC000541568816
##########                DOCK_Rotatable_Bonds:                   8
##########                         Heavy_Atoms:                  25
##########                    Molecular_Weight:             411.339
##########                DOCK_Rotatable_Bonds:                   8
##########                       Formal_Charge:          -0.0100007
##########                     HBond_Acceptors:                   5
##########                        HBond_Donors:                   1
##########                         Heavy_Atoms:                  25
##########                          Grid_Score:          -28.112452
##########                     Grid_vdw_energy:          -26.915941
##########                      Grid_es_energy:           -1.196511
##########           Internal_energy_repulsive:           19.066187

@<TRIPOS>MOLECULE
ZINC000541568816
 52 54 1 0 0
SMALL
USER_CHARGES


@<TRIPOS>ATOM
      1 C1         -6.2957    1.1285   50.9410 C.3     1  ZINC000541568816   -0.1500
      2 C2         -6.2237    2.6505   51.0804 C.3     1  ZINC000541568816    0.0600
      3 O3         -4.9383    3.1074   50.6550 O.3     1  ZINC000541568816   -0.3700
      4 C4         -3.9935    3.2558   51.7168 C.3     1  ZINC000541568816    0.0700
      5 H5         -3.9068    2.3621   52.3347 H       1  ZINC000541568816    0.0900
      6 C6         -4.1746    4.5512   52.5275 C.3     1  ZINC000541568816   -0.1700
      7 C7         -2.6401    4.6640   52.5466 C.3     1  ZINC000541568816    0.1500
      8 H8         -2.2746    5.6807   52.4023 H       1  ZINC000541568816    0.1100
      9 N9         -2.0157    3.9910   53.6883 N.am    1  ZINC000541568816   -0.7200
     10 C10        -0.7503    4.2942   54.0397 C.2     1  ZINC000541568816    0.7100
     11 O11        -0.1275    5.1272   53.4100 O.2     1  ZINC000541568816   -0.5800
     12 N12        -0.1754    3.6740   55.0891 N.am    1  ZINC000541568816   -0.6300
     13 C13         1.2006    4.0021   55.4700 C.3     1  ZINC000541568816    0.1000
     14 C14         2.1661    3.0445   54.7688 C.3     1  ZINC000541568816   -0.1800
     15 C15        -0.9265    2.6716   55.8489 C.3     1  ZINC000541568816    0.1700
     16 C16        -0.6586    2.8524   57.3207 C.ar    1  ZINC000541568816   -0.0700
     17 C17         0.2822    2.0626   57.9541 C.ar    1  ZINC000541568816   -0.1000
     18 C18         0.5281    2.2284   59.3045 C.ar    1  ZINC000541568816   -0.1000
     19 C19        -0.1665    3.1844   60.0217 C.ar    1  ZINC000541568816   -0.1200
     20 C20        -1.1077    3.9748   59.3890 C.ar    1  ZINC000541568816   -0.0900
     21 C21        -1.3503    3.8128   58.0370 C.ar    1  ZINC000541568816   -0.0900
     22 Br22       -2.6378    4.8938   57.1710 Br      1  ZINC000541568816   -0.0500
     23 C23        -2.6443    3.8228   51.2639 C.3     1  ZINC000541568816    0.0800
     24 C24        -2.6984    4.6406   49.9618 C.3     1  ZINC000541568816   -0.1200
     25 C25        -1.2701    4.4294   49.3864 C.3     1  ZINC000541568816   -0.1600
     26 C26        -0.9728    2.9822   49.8553 C.3     1  ZINC000541568816    0.0500
     27 O27        -1.5859    2.8734   51.1519 O.3     1  ZINC000541568816   -0.3600
     28 H28        -6.1383    0.8512   49.8987 H       1  ZINC000541568816    0.0600
     29 H29        -5.5242    0.6701   51.5595 H       1  ZINC000541568816    0.0600
     30 H30        -7.2762    0.7800   51.2655 H       1  ZINC000541568816    0.0700
     31 H31        -6.9953    3.1089   50.4619 H       1  ZINC000541568816    0.0500
     32 H32        -6.3812    2.9278   52.1228 H       1  ZINC000541568816    0.0500
     33 H33        -4.6640    5.3500   51.9701 H       1  ZINC000541568816    0.1000
     34 H34        -4.6128    4.3918   53.5127 H       1  ZINC000541568816    0.0800
     35 H35        -2.5130    3.3274   54.1914 H       1  ZINC000541568816    0.4000
     36 H36         1.4253    5.0265   55.1730 H       1  ZINC000541568816    0.0900
     37 H37         1.3119    3.9040   56.5498 H       1  ZINC000541568816    0.0700
     38 H38         2.0549    3.1424   53.6889 H       1  ZINC000541568816    0.0600
     39 H39         3.1899    3.2886   55.0521 H       1  ZINC000541568816    0.0700
     40 H40         1.9414    2.0200   55.0656 H       1  ZINC000541568816    0.0600
     41 H41        -1.9924    2.7931   55.6560 H       1  ZINC000541568816    0.1000
     42 H42        -0.6133    1.6735   55.5424 H       1  ZINC000541568816    0.1100
     43 H43         0.8251    1.3156   57.3942 H       1  ZINC000541568816    0.1300
     44 H44         1.2629    1.6106   59.7994 H       1  ZINC000541568816    0.1300
     45 H45         0.0259    3.3135   61.0765 H       1  ZINC000541568816    0.1300
     46 H46        -1.6507    4.7215   59.9495 H       1  ZINC000541568816    0.1300
     47 H47        -3.4537    4.2432   49.2839 H       1  ZINC000541568816    0.1000
     48 H48        -2.8815    5.6944   50.1716 H       1  ZINC000541568816    0.0900
     49 H49        -1.2711    4.4973   48.2985 H       1  ZINC000541568816    0.0900
     50 H50        -0.5632    5.1359   49.8213 H       1  ZINC000541568816    0.0800
     51 H51        -1.4155    2.2630   49.1662 H       1  ZINC000541568816    0.0600
     52 H52         0.1027    2.8224   49.9308 H       1  ZINC000541568816    0.0900
@<TRIPOS>BOND
     1     1     2    1
     2     1    28    1
     3     1    29    1
     4     1    30    1
     5     2     3    1
     6     2    31    1
     7     2    32    1
     8     3     4    1
     9     4     5    1
    10     4    23    1
    11     4     6    1
    12     6     7    1
    13     6    33    1
    14     6    34    1
    15     7     8    1
    16     7     9    1
    17     7    23    1
    18     9    10   am
    19     9    35    1
    20    10    11    2
    21    10    12   am
    22    12    13    1
    23    12    15    1
    24    13    14    1
    25    13    36    1
    26    13    37    1
    27    14    38    1
    28    14    39    1
    29    14    40    1
    30    15    16    1
    31    15    41    1
    32    15    42    1
    33    16    21   ar
    34    16    17   ar
    35    17    18   ar
    36    17    43    1
    37    18    19   ar
    38    18    44    1
    39    19    20   ar
    40    19    45    1
    41    20    21   ar
    42    20    46    1
    43    21    22    1
    44    23    27    1
    45    23    24    1
    46    24    25    1
    47    24    47    1
    48    24    48    1
    49    25    26    1
    50    25    49    1
    51    25    50    1
    52    26    27    1
    53    26    51    1
    54    26    52    1
@<TRIPOS>SUBSTRUCTURE
     1 ZINC000541568816        1 TEMP              0 ****  ****    0 ROOT


##########                                Name:    ZINC000277085192
##########                DOCK_Rotatable_Bonds:                   4
##########                         Heavy_Atoms:                  23
##########                    Molecular_Weight:             335.747
##########                DOCK_Rotatable_Bonds:                   4
##########                       Formal_Charge:         5.96046e-08
##########                     HBond_Acceptors:                   8
##########                        HBond_Donors:                   2
##########                         Heavy_Atoms:                  23
##########                          Grid_Score:          -28.072466
##########                     Grid_vdw_energy:          -25.859312
##########                      Grid_es_energy:           -2.213154
##########           Internal_energy_repulsive:            7.903722

@<TRIPOS>MOLECULE
ZINC000277085192
 37 39 1 0 0
SMALL
USER_CHARGES


@<TRIPOS>ATOM
      1 O1         -5.4992    4.2700   51.2919 O.2     1  ZINC000277085192   -0.5000
      2 C2         -5.2599    3.6267   52.2920 C.2     1  ZINC000277085192    0.5000
      3 C3         -6.3386    3.4035   53.3203 C.3     1  ZINC000277085192    0.1100
      4 N4         -7.1716    2.2683   52.9157 N.am    1  ZINC000277085192   -0.6000
      5 C5         -6.6509    1.2988   51.9501 C.3     1  ZINC000277085192    0.1100
      6 C6         -7.1495   -0.1020   52.3121 C.3     1  ZINC000277085192   -0.1600
      7 C7         -8.6287   -0.0426   52.5996 C.2     1  ZINC000277085192    0.5200
      8 O8         -9.3417   -0.9781   52.3061 O.2     1  ZINC000277085192   -0.5000
      9 N9         -9.1568    1.0492   53.1826 N.am    1  ZINC000277085192   -0.6700
     10 C10        -8.4001    2.1285   53.4399 C.2     1  ZINC000277085192    0.7200
     11 O11        -8.8411    3.0045   54.1578 O.2     1  ZINC000277085192   -0.5500
     12 N12        -4.0309    3.1068   52.4808 N.am    1  ZINC000277085192   -0.6700
     13 C13        -3.0286    3.3142   51.5254 C.ar    1  ZINC000277085192    0.1400
     14 C14        -3.1409    2.7441   50.2709 C.ar    1  ZINC000277085192   -0.0400
     15 C15        -2.1362    2.9511   49.3129 C.ar    1  ZINC000277085192   -0.1700
     16 C16        -1.0290    3.7349   49.6393 C.ar    1  ZINC000277085192   -0.0500
     17 C17        -0.9281    4.3001   50.8967 C.ar    1  ZINC000277085192   -0.0900
     18 C18        -1.9220    4.0987   51.8368 C.ar    1  ZINC000277085192   -0.0300
     19 Cl19       -1.7828    4.8143   53.4123 Cl      1  ZINC000277085192   -0.0500
     20 C20        -0.0951    3.8097   48.4549 C.3     1  ZINC000277085192   -0.0800
     21 C21        -0.7453    2.9787   47.3403 C.3     1  ZINC000277085192   -0.1700
     22 C22        -2.0327    2.4567   47.9305 C.2     1  ZINC000277085192    0.4100
     23 O23        -2.8414    1.7527   47.3639 O.2     1  ZINC000277085192   -0.4300
     24 H24        -5.8812    3.1922   54.2868 H       1  ZINC000277085192    0.1300
     25 H25        -6.9567    4.2979   53.3985 H       1  ZINC000277085192    0.1200
     26 H26        -6.9971    1.5604   50.9501 H       1  ZINC000277085192    0.0800
     27 H27        -5.5612    1.3135   51.9723 H       1  ZINC000277085192    0.1000
     28 H28        -6.9675   -0.7802   51.4784 H       1  ZINC000277085192    0.1300
     29 H29        -6.6209   -0.4596   53.1957 H       1  ZINC000277085192    0.1200
     30 H30       -10.0964    1.0551   53.4235 H       1  ZINC000277085192    0.4300
     31 H31        -3.8407    2.5891   53.2787 H       1  ZINC000277085192    0.4200
     32 H32        -4.0018    2.1389   50.0281 H       1  ZINC000277085192    0.1500
     33 H33        -0.0693    4.9059   51.1453 H       1  ZINC000277085192    0.1500
     34 H34         0.0184    4.8448   48.1324 H       1  ZINC000277085192    0.1000
     35 H35         0.8761    3.3900   48.7169 H       1  ZINC000277085192    0.1000
     36 H36        -0.9541    3.6065   46.4741 H       1  ZINC000277085192    0.1100
     37 H37        -0.0954    2.1500   47.0592 H       1  ZINC000277085192    0.1100
@<TRIPOS>BOND
     1     1     2    2
     2     2     3    1
     3     2    12   am
     4     3     4    1
     5     3    24    1
     6     3    25    1
     7     4    10   am
     8     4     5    1
     9     5     6    1
    10     5    26    1
    11     5    27    1
    12     6     7    1
    13     6    28    1
    14     6    29    1
    15     7     8    2
    16     7     9   am
    17     9    10   am
    18     9    30    1
    19    10    11    2
    20    12    13    1
    21    12    31    1
    22    13    18   ar
    23    13    14   ar
    24    14    15   ar
    25    14    32    1
    26    15    22    1
    27    15    16   ar
    28    16    17   ar
    29    16    20    1
    30    17    18   ar
    31    17    33    1
    32    18    19    1
    33    20    21    1
    34    20    34    1
    35    20    35    1
    36    21    22    1
    37    21    36    1
    38    21    37    1
    39    22    23    2
@<TRIPOS>SUBSTRUCTURE
     1 ZINC000277085192        1 TEMP              0 ****  ****    0 ROOT


##########                                Name:    ZINC000939075213
##########                DOCK_Rotatable_Bonds:                   7
##########                         Heavy_Atoms:                  24
##########                    Molecular_Weight:             327.426
##########                DOCK_Rotatable_Bonds:                   7
##########                       Formal_Charge:          -0.0200002
##########                     HBond_Acceptors:                   5
##########                        HBond_Donors:                   2
##########                         Heavy_Atoms:                  24
##########                          Grid_Score:          -28.067808
##########                     Grid_vdw_energy:          -26.038370
##########                      Grid_es_energy:           -2.029438
##########           Internal_energy_repulsive:            9.305947

@<TRIPOS>MOLECULE
ZINC000939075213
 49 51 1 0 0
SMALL
USER_CHARGES


@<TRIPOS>ATOM
      1 C1         -0.2362    4.1376   50.6570 C.3     1  ZINC000939075213   -0.1400
      2 C2         -1.3709    3.2730   51.2099 C.3     1  ZINC000939075213   -0.1100
      3 H3         -1.0112    2.2760   51.4647 H       1  ZINC000939075213    0.0900
      4 C4         -2.5507    3.1986   50.2089 C.3     1  ZINC000939075213    0.1100
      5 N5         -3.7330    2.9073   51.0399 N.am    1  ZINC000939075213   -0.6200
      6 C6         -4.8662    2.3151   50.6135 C.2     1  ZINC000939075213    0.5600
      7 O7         -4.9739    1.9731   49.4497 O.2     1  ZINC000939075213   -0.5400
      8 C8         -5.9310    2.0909   51.5184 C.2     1  ZINC000939075213   -0.2600
      9 C9         -6.7726    1.0444   51.3291 C.2     1  ZINC000939075213    0.0400
     10 C10        -7.8386    0.8197   52.2347 C.2     1  ZINC000939075213    0.0000
     11 C11        -8.1895    1.6267   53.3013 C.2     1  ZINC000939075213   -0.1500
     12 C12        -9.2923    1.0316   53.9209 C.2     1  ZINC000939075213   -0.2200
     13 C13        -9.5913   -0.1016   53.2407 C.2     1  ZINC000939075213    0.0200
     14 N14        -8.7185   -0.2391   52.2100 N.pl3   1  ZINC000939075213   -0.5000
     15 C15        -3.4708    3.3687   52.4110 C.3     1  ZINC000939075213    0.0900
     16 C16        -2.0416    3.9516   52.4335 C.3     1  ZINC000939075213    0.1400
     17 H17        -2.0647    5.0343   52.3085 H       1  ZINC000939075213    0.1100
     18 N18        -1.3536    3.5896   53.6751 N.am    1  ZINC000939075213   -0.7200
     19 C19        -1.6553    4.2276   54.8233 C.2     1  ZINC000939075213    0.5300
     20 O20        -2.4952    5.1025   54.8284 O.2     1  ZINC000939075213   -0.5300
     21 C21        -0.9488    3.8539   56.1010 C.3     1  ZINC000939075213   -0.0600
     22 C22        -0.1308    2.5762   55.9024 C.3     1  ZINC000939075213   -0.1300
     23 C23        -0.0591    4.9853   56.5609 C.2     1  ZINC000939075213   -0.1700
     24 C24        -0.1888    5.1938   57.8428 C.2     1  ZINC000939075213   -0.1400
     25 C25        -1.1866    4.2363   58.4516 C.3     1  ZINC000939075213   -0.1100
     26 C26        -1.9705    3.6667   57.2465 C.3     1  ZINC000939075213   -0.1100
     27 H27         0.5437    4.2397   51.4117 H       1  ZINC000939075213    0.0600
     28 H28         0.1795    3.6656   49.7666 H       1  ZINC000939075213    0.0700
     29 H29        -0.6231    5.1232   50.3987 H       1  ZINC000939075213    0.0600
     30 H30        -2.6734    4.1523   49.6956 H       1  ZINC000939075213    0.0700
     31 H31        -2.3867    2.3974   49.4883 H       1  ZINC000939075213    0.0800
     32 H32        -6.0733    2.7530   52.3596 H       1  ZINC000939075213    0.1300
     33 H33        -6.6301    0.3823   50.4877 H       1  ZINC000939075213    0.1500
     34 H34        -7.7029    2.5435   53.5998 H       1  ZINC000939075213    0.1400
     35 H35        -9.8138    1.4084   54.7884 H       1  ZINC000939075213    0.1400
     36 H36       -10.3953   -0.7825   53.4778 H       1  ZINC000939075213    0.1600
     37 H37        -8.7122   -0.9653   51.5670 H       1  ZINC000939075213    0.4100
     38 H38        -4.1905    4.1397   52.6865 H       1  ZINC000939075213    0.0800
     39 H39        -3.5394    2.5301   53.1039 H       1  ZINC000939075213    0.0700
     40 H40        -0.6810    2.8906   53.6709 H       1  ZINC000939075213    0.4000
     41 H41         0.6027    2.7336   55.1116 H       1  ZINC000939075213    0.0600
     42 H42         0.3834    2.3261   56.8303 H       1  ZINC000939075213    0.0700
     43 H43        -0.7957    1.7587   55.6237 H       1  ZINC000939075213    0.0600
     44 H44         0.5981    5.5473   55.9139 H       1  ZINC000939075213    0.1300
     45 H45         0.3470    5.9510   58.3958 H       1  ZINC000939075213    0.1300
     46 H46        -0.6702    3.4357   58.9813 H       1  ZINC000939075213    0.0800
     47 H47        -1.8592    4.7666   59.1257 H       1  ZINC000939075213    0.0800
     48 H48        -2.8765    4.2438   57.0611 H       1  ZINC000939075213    0.0900
     49 H49        -2.2037    2.6123   57.3946 H       1  ZINC000939075213    0.0800
@<TRIPOS>BOND
     1     1     2    1
     2     1    27    1
     3     1    28    1
     4     1    29    1
     5     2     3    1
     6     2    16    1
     7     2     4    1
     8     4     5    1
     9     4    30    1
    10     4    31    1
    11     5     6   am
    12     5    15    1
    13     6     7    2
    14     6     8    1
    15     8     9    2
    16     8    32    1
    17     9    10    1
    18     9    33    1
    19    10    14    1
    20    10    11    2
    21    11    12    1
    22    11    34    1
    23    12    13    2
    24    12    35    1
    25    13    14    1
    26    13    36    1
    27    14    37    1
    28    15    16    1
    29    15    38    1
    30    15    39    1
    31    16    17    1
    32    16    18    1
    33    18    19   am
    34    18    40    1
    35    19    20    2
    36    19    21    1
    37    21    26    1
    38    21    22    1
    39    21    23    1
    40    22    41    1
    41    22    42    1
    42    22    43    1
    43    23    24    2
    44    23    44    1
    45    24    25    1
    46    24    45    1
    47    25    26    1
    48    25    46    1
    49    25    47    1
    50    26    48    1
    51    26    49    1
@<TRIPOS>SUBSTRUCTURE
     1 ZINC000939075213        1 TEMP              0 ****  ****    0 ROOT


##########                                Name:    ZINC000274225049
##########                DOCK_Rotatable_Bonds:                   6
##########                         Heavy_Atoms:                  25
##########                    Molecular_Weight:             380.895
##########                DOCK_Rotatable_Bonds:                   6
##########                       Formal_Charge:           0.0200006
##########                     HBond_Acceptors:                   7
##########                        HBond_Donors:                   2
##########                         Heavy_Atoms:                  25
##########                          Grid_Score:          -28.060528
##########                     Grid_vdw_energy:          -25.797209
##########                      Grid_es_energy:           -2.263320
##########           Internal_energy_repulsive:           19.538364

@<TRIPOS>MOLECULE
ZINC000274225049
 46 48 1 0 0
SMALL
USER_CHARGES


@<TRIPOS>ATOM
      1 C1         -3.6156    4.9292   50.8573 C.3     1  ZINC000274225049   -0.1600
      2 C2         -3.4302    3.4578   50.4813 C.3     1  ZINC000274225049    0.2000
      3 H3         -3.9033    3.2665   49.5182 H       1  ZINC000274225049    0.1100
      4 N4         -4.0468    2.6107   51.5051 N.am    1  ZINC000274225049   -0.7400
      5 C5         -5.3385    2.2442   51.3882 C.2     1  ZINC000274225049    0.7100
      6 O6         -5.9916    2.6156   50.4323 O.2     1  ZINC000274225049   -0.5800
      7 N7         -5.9062    1.4661   52.3309 N.am    1  ZINC000274225049   -0.7500
      8 C8         -7.3098    1.0664   52.2030 C.3     1  ZINC000274225049    0.1500
      9 C9         -8.2117    2.2497   52.5597 C.3     1  ZINC000274225049   -0.1000
     10 H10        -7.9995    3.0921   51.9014 H       1  ZINC000274225049    0.1000
     11 C11        -7.9898    2.6580   54.0266 C.3     1  ZINC000274225049   -0.1100
     12 C12        -9.1295    3.6040   54.4543 C.3     1  ZINC000274225049   -0.5900
     13 S13       -10.5560    3.1331   53.4106 S.o2    1  ZINC000274225049    2.3900
     14 O14       -11.5540    2.5291   54.2219 O.2     1  ZINC000274225049   -0.9300
     15 O15       -10.8968    4.2198   52.5608 O.2     1  ZINC000274225049   -0.9300
     16 C16        -9.7014    1.8389   52.4330 C.3     1  ZINC000274225049   -0.5900
     17 C17        -1.9590    3.1445   50.3892 C.ar    1  ZINC000274225049   -0.0700
     18 C18        -1.4228    2.6149   49.2035 C.ar    1  ZINC000274225049   -0.0300
     19 C19        -2.2343    2.3655   48.0833 C.ar    1  ZINC000274225049   -0.1100
     20 C20        -1.6800    1.8522   46.9514 C.ar    1  ZINC000274225049   -0.1100
     21 C21        -0.3170    1.5689   46.8844 C.ar    1  ZINC000274225049   -0.1100
     22 C22         0.4993    1.7974   47.9491 C.ar    1  ZINC000274225049   -0.1000
     23 C23        -0.0368    2.3268   49.1353 C.ar    1  ZINC000274225049   -0.0400
     24 C24         0.7749    2.5768   50.2558 C.ar    1  ZINC000274225049   -0.0300
     25 Cl25        2.4755    2.2328   50.1960 Cl      1  ZINC000274225049   -0.0600
     26 C26         0.2195    3.0911   51.3887 C.ar    1  ZINC000274225049   -0.1000
     27 C27        -1.1420    3.3786   51.4529 C.ar    1  ZINC000274225049   -0.1000
     28 H28        -4.6797    5.1559   50.9238 H       1  ZINC000274225049    0.0700
     29 H29        -3.1425    5.1205   51.8205 H       1  ZINC000274225049    0.0700
     30 H30        -3.1568    5.5596   50.0955 H       1  ZINC000274225049    0.0800
     31 H31        -3.5254    2.3135   52.2672 H       1  ZINC000274225049    0.4000
     32 H32        -5.3855    1.1709   53.0943 H       1  ZINC000274225049    0.4000
     33 H33        -7.5069    0.7555   51.1770 H       1  ZINC000274225049    0.0800
     34 H34        -7.5143    0.2367   52.8797 H       1  ZINC000274225049    0.0800
     35 H35        -7.9939    1.7701   54.6588 H       1  ZINC000274225049    0.0900
     36 H36        -7.0325    3.1702   54.1236 H       1  ZINC000274225049    0.0900
     37 H37        -9.3671    3.4583   55.5080 H       1  ZINC000274225049    0.1400
     38 H38        -8.8505    4.6411   54.2682 H       1  ZINC000274225049    0.1400
     39 H39       -10.0237    1.8644   51.3921 H       1  ZINC000274225049    0.1400
     40 H40        -9.8683    0.8530   52.8668 H       1  ZINC000274225049    0.1400
     41 H41        -3.2922    2.5798   48.1208 H       1  ZINC000274225049    0.1300
     42 H42        -2.3058    1.6612   46.0921 H       1  ZINC000274225049    0.1300
     43 H43         0.0975    1.1617   45.9740 H       1  ZINC000274225049    0.1300
     44 H44         1.5536    1.5726   47.8828 H       1  ZINC000274225049    0.1300
     45 H45         0.8447    3.2820   52.2484 H       1  ZINC000274225049    0.1300
     46 H46        -1.5572    3.7856   52.3629 H       1  ZINC000274225049    0.1300
@<TRIPOS>BOND
     1     1     2    1
     2     1    28    1
     3     1    29    1
     4     1    30    1
     5     2     3    1
     6     2     4    1
     7     2    17    1
     8     4     5   am
     9     4    31    1
    10     5     6    2
    11     5     7   am
    12     7     8    1
    13     7    32    1
    14     8     9    1
    15     8    33    1
    16     8    34    1
    17     9    10    1
    18     9    16    1
    19     9    11    1
    20    11    12    1
    21    11    35    1
    22    11    36    1
    23    12    13    1
    24    12    37    1
    25    12    38    1
    26    13    14    2
    27    13    15    2
    28    13    16    1
    29    16    39    1
    30    16    40    1
    31    17    27   ar
    32    17    18   ar
    33    18    23   ar
    34    18    19   ar
    35    19    20   ar
    36    19    41    1
    37    20    21   ar
    38    20    42    1
    39    21    22   ar
    40    21    43    1
    41    22    23   ar
    42    22    44    1
    43    23    24   ar
    44    24    25    1
    45    24    26   ar
    46    26    27   ar
    47    26    45    1
    48    27    46    1
@<TRIPOS>SUBSTRUCTURE
     1 ZINC000274225049        1 TEMP              0 ****  ****    0 ROOT


##########                                Name:    ZINC000001174632
##########                DOCK_Rotatable_Bonds:                   6
##########                         Heavy_Atoms:                  29
##########                    Molecular_Weight:             385.419
##########                DOCK_Rotatable_Bonds:                   6
##########                       Formal_Charge:           0.0400005
##########                     HBond_Acceptors:                   5
##########                        HBond_Donors:                   1
##########                         Heavy_Atoms:                  29
##########                          Grid_Score:          -28.060421
##########                     Grid_vdw_energy:          -27.690741
##########                      Grid_es_energy:           -0.369681
##########           Internal_energy_repulsive:           22.861286

@<TRIPOS>MOLECULE
ZINC000001174632
 48 51 1 0 0
SMALL
USER_CHARGES


@<TRIPOS>ATOM
      1 C1         -7.0193    0.2160   51.5654 C.3     1  ZINC000001174632    0.0400
      2 O2         -6.7795    1.6244   51.8245 O.3     1  ZINC000001174632   -0.3500
      3 C3         -5.5543    2.1010   51.5282 C.2     1  ZINC000001174632    0.5200
      4 O4         -4.6680    1.3369   51.2007 O.2     1  ZINC000001174632   -0.5200
      5 C5         -5.2894    3.5487   51.6014 C.ar    1  ZINC000001174632   -0.2000
      6 C6         -6.3106    4.4331   51.9572 C.ar    1  ZINC000001174632   -0.0200
      7 C7         -6.0561    5.7860   52.0243 C.ar    1  ZINC000001174632   -0.1800
      8 C8         -4.7914    6.2758   51.7406 C.ar    1  ZINC000001174632   -0.0300
      9 C9         -3.7717    5.4153   51.3872 C.ar    1  ZINC000001174632   -0.1900
     10 C10        -4.0069    4.0478   51.3196 C.ar    1  ZINC000001174632    0.2600
     11 N11        -2.9826    3.1799   50.9646 N.pl3   1  ZINC000001174632   -0.6500
     12 C12        -1.7121    3.3897   51.4356 C.2     1  ZINC000001174632    0.2300
     13 C13        -0.5759    3.4903   50.6559 C.2     1  ZINC000001174632   -0.1800
     14 C14        -0.5261    3.3904   49.1803 C.ar    1  ZINC000001174632   -0.0600
     15 C15        -1.2766    2.4169   48.5192 C.ar    1  ZINC000001174632   -0.0600
     16 C16        -1.2273    2.3271   47.1439 C.ar    1  ZINC000001174632   -0.1500
     17 C17        -0.4325    3.2029   46.4172 C.ar    1  ZINC000001174632    0.1400
     18 O18        -0.3868    3.1110   45.0616 O.3     1  ZINC000001174632   -0.3200
     19 C19         0.4005    4.0838   44.3716 C.3     1  ZINC000001174632    0.0300
     20 C20         0.3154    4.1726   47.0709 C.ar    1  ZINC000001174632   -0.2100
     21 C21         0.2670    4.2731   48.4455 C.ar    1  ZINC000001174632   -0.0500
     22 C22         0.5736    3.7140   51.5417 C.2     1  ZINC000001174632    0.4500
     23 O23         1.7326    3.8502   51.2019 O.2     1  ZINC000001174632   -0.4100
     24 C24         0.0501    3.7428   52.9353 C.ar    1  ZINC000001174632   -0.1600
     25 C25         0.6602    3.9163   54.1634 C.ar    1  ZINC000001174632   -0.0500
     26 C26        -0.1035    3.8946   55.3263 C.ar    1  ZINC000001174632   -0.1100
     27 C27        -1.4661    3.7004   55.2580 C.ar    1  ZINC000001174632   -0.0900
     28 C28        -2.0902    3.5250   54.0286 C.ar    1  ZINC000001174632   -0.0800
     29 C29        -1.3408    3.5508   52.8616 C.ar    1  ZINC000001174632   -0.0600
     30 H30        -6.3222   -0.3847   52.1497 H       1  ZINC000001174632    0.0700
     31 H31        -8.0414   -0.0365   51.8476 H       1  ZINC000001174632    0.1100
     32 H32        -6.8743    0.0118   50.5046 H       1  ZINC000001174632    0.0700
     33 H33        -7.2984    4.0571   52.1790 H       1  ZINC000001174632    0.1400
     34 H34        -6.8470    6.4683   52.2992 H       1  ZINC000001174632    0.1300
     35 H35        -4.6023    7.3376   51.7961 H       1  ZINC000001174632    0.1300
     36 H36        -2.7888    5.8051   51.1668 H       1  ZINC000001174632    0.1300
     37 H37        -3.1660    2.4252   50.3836 H       1  ZINC000001174632    0.4300
     38 H38        -1.8947    1.7347   49.0840 H       1  ZINC000001174632    0.1300
     39 H39        -1.8077    1.5741   46.6316 H       1  ZINC000001174632    0.1300
     40 H40         0.0149    5.0808   44.5848 H       1  ZINC000001174632    0.0600
     41 H41         1.4361    4.0158   44.7050 H       1  ZINC000001174632    0.0600
     42 H42         0.3510    3.8968   43.2990 H       1  ZINC000001174632    0.1000
     43 H43         0.9328    4.8518   46.5020 H       1  ZINC000001174632    0.1300
     44 H44         0.8488    5.0280   48.9534 H       1  ZINC000001174632    0.1300
     45 H45         1.7279    4.0680   54.2203 H       1  ZINC000001174632    0.1400
     46 H46         0.3732    4.0301   56.2859 H       1  ZINC000001174632    0.1400
     47 H47        -2.0522    3.6841   56.1649 H       1  ZINC000001174632    0.1400
     48 H48        -3.1585    3.3732   53.9815 H       1  ZINC000001174632    0.1300
@<TRIPOS>BOND
     1     1     2    1
     2     1    30    1
     3     1    31    1
     4     1    32    1
     5     2     3    1
     6     3     4    2
     7     3     5    1
     8     5    10   ar
     9     5     6   ar
    10     6     7   ar
    11     6    33    1
    12     7     8   ar
    13     7    34    1
    14     8     9   ar
    15     8    35    1
    16     9    10   ar
    17     9    36    1
    18    10    11    1
    19    11    12    1
    20    11    37    1
    21    12    29    1
    22    12    13    2
    23    13    14    1
    24    13    22    1
    25    14    21   ar
    26    14    15   ar
    27    15    16   ar
    28    15    38    1
    29    16    17   ar
    30    16    39    1
    31    17    18    1
    32    17    20   ar
    33    18    19    1
    34    19    40    1
    35    19    41    1
    36    19    42    1
    37    20    21   ar
    38    20    43    1
    39    21    44    1
    40    22    23    2
    41    22    24    1
    42    24    29   ar
    43    24    25   ar
    44    25    26   ar
    45    25    45    1
    46    26    27   ar
    47    26    46    1
    48    27    28   ar
    49    27    47    1
    50    28    29   ar
    51    28    48    1
@<TRIPOS>SUBSTRUCTURE
     1 ZINC000001174632        1 TEMP              0 ****  ****    0 ROOT


##########                                Name:    ZINC000822449555
##########                DOCK_Rotatable_Bonds:                   5
##########                         Heavy_Atoms:                  27
##########                    Molecular_Weight:             366.383
##########                DOCK_Rotatable_Bonds:                   5
##########                       Formal_Charge:          -0.0100009
##########                     HBond_Acceptors:                  10
##########                        HBond_Donors:                   2
##########                         Heavy_Atoms:                  27
##########                          Grid_Score:          -28.055601
##########                     Grid_vdw_energy:          -28.858253
##########                      Grid_es_energy:            0.802652
##########           Internal_energy_repulsive:            8.661192

@<TRIPOS>MOLECULE
ZINC000822449555
 45 48 1 0 0
SMALL
USER_CHARGES


@<TRIPOS>ATOM
      1 C1         -7.1386   -1.3064   51.5526 C.3     1  ZINC000822449555   -0.1100
      2 C2         -8.0884   -0.2570   52.0701 C.ar    1  ZINC000822449555    0.1400
      3 N3         -9.1586   -0.6238   52.7488 N.ar    1  ZINC000822449555   -0.5000
      4 C4        -10.0199    0.2632   53.2220 C.ar    1  ZINC000822449555    0.3000
      5 N5        -11.1353   -0.1718   53.9326 N.3     1  ZINC000822449555   -0.4700
      6 C6        -10.7572   -1.1605   54.9530 C.3     1  ZINC000822449555    0.0200
      7 C7        -12.0009   -1.5662   55.7482 C.3     1  ZINC000822449555    0.0600
      8 O8        -12.9927   -2.0687   54.8487 O.3     1  ZINC000822449555   -0.3800
      9 C9        -13.3849   -1.1315   53.8421 C.3     1  ZINC000822449555    0.0600
     10 C10       -12.1552   -0.7213   53.0276 C.3     1  ZINC000822449555    0.0300
     11 C11        -9.8229    1.6247   53.0177 C.ar    1  ZINC000822449555   -0.1700
     12 C12        -8.7118    2.0463   52.3106 C.ar    1  ZINC000822449555   -0.0500
     13 C13        -7.8245    1.0835   51.8322 C.ar    1  ZINC000822449555    0.0600
     14 N14        -6.6856    1.4649   51.1106 N.am    1  ZINC000822449555   -0.6600
     15 C15        -5.7817    2.2950   51.6676 C.2     1  ZINC000822449555    0.5700
     16 O16        -5.9545    2.7132   52.7962 O.2     1  ZINC000822449555   -0.5100
     17 C17        -4.5812    2.6970   50.9069 C.ar    1  ZINC000822449555   -0.1800
     18 C18        -3.6431    3.5726   51.4704 C.ar    1  ZINC000822449555   -0.0100
     19 C19        -2.5363    3.9199   50.7209 C.ar    1  ZINC000822449555   -0.1300
     20 C20        -2.3897    3.3922   49.4388 C.ar    1  ZINC000822449555    0.2300
     21 C21        -1.2039    3.7600   48.6272 C.2     1  ZINC000822449555    0.2100
     22 N22        -0.2441    4.5972   48.9692 N.2     1  ZINC000822449555   -0.2500
     23 N23         0.6010    4.6460   47.9976 N.pl3   1  ZINC000822449555   -0.2200
     24 N24         0.2078    3.8670   47.0512 N.2     1  ZINC000822449555   -0.0400
     25 N25        -0.8961    3.3016   47.4052 N.2     1  ZINC000822449555   -0.2500
     26 N26        -3.2972    2.5645   48.9349 N.ar    1  ZINC000822449555   -0.4500
     27 C27        -4.3619    2.2052   49.6181 C.ar    1  ZINC000822449555    0.1400
     28 H28        -6.3761   -1.5089   52.3047 H       1  ZINC000822449555    0.0800
     29 H29        -7.6902   -2.2220   51.3388 H       1  ZINC000822449555    0.0800
     30 H30        -6.6626   -0.9475   50.6401 H       1  ZINC000822449555    0.0700
     31 H31       -10.3323   -2.0395   54.4683 H       1  ZINC000822449555    0.0600
     32 H32       -10.0204   -0.7239   55.6273 H       1  ZINC000822449555    0.1000
     33 H33       -11.7361   -2.3410   56.4677 H       1  ZINC000822449555    0.1100
     34 H34       -12.3948   -0.6976   56.2760 H       1  ZINC000822449555    0.0600
     35 H35       -14.1211   -1.5919   53.1832 H       1  ZINC000822449555    0.1000
     36 H36       -13.8190   -0.2504   54.3145 H       1  ZINC000822449555    0.0600
     37 H37       -12.4388    0.0356   52.2964 H       1  ZINC000822449555    0.1000
     38 H38       -11.7527   -1.5934   52.5121 H       1  ZINC000822449555    0.0600
     39 H39       -10.5290    2.3436   53.4062 H       1  ZINC000822449555    0.1400
     40 H40        -8.5336    3.0972   52.1364 H       1  ZINC000822449555    0.1500
     41 H41        -6.5478    1.1314   50.2103 H       1  ZINC000822449555    0.4100
     42 H42        -3.7827    3.9666   52.4663 H       1  ZINC000822449555    0.1600
     43 H43        -1.7933    4.5925   51.1232 H       1  ZINC000822449555    0.1600
     44 H44         1.4072    5.1852   47.9818 H       1  ZINC000822449555    0.4800
     45 H45        -5.0783    1.5295   49.1749 H       1  ZINC000822449555    0.1700
@<TRIPOS>BOND
     1     1     2    1
     2     1    28    1
     3     1    29    1
     4     1    30    1
     5     2    13   ar
     6     2     3   ar
     7     3     4   ar
     8     4     5    1
     9     4    11   ar
    10     5    10    1
    11     5     6    1
    12     6     7    1
    13     6    31    1
    14     6    32    1
    15     7     8    1
    16     7    33    1
    17     7    34    1
    18     8     9    1
    19     9    10    1
    20     9    35    1
    21     9    36    1
    22    10    37    1
    23    10    38    1
    24    11    12   ar
    25    11    39    1
    26    12    13   ar
    27    12    40    1
    28    13    14    1
    29    14    15   am
    30    14    41    1
    31    15    16    2
    32    15    17    1
    33    17    27   ar
    34    17    18   ar
    35    18    19   ar
    36    18    42    1
    37    19    20   ar
    38    19    43    1
    39    20    21    1
    40    20    26   ar
    41    21    25    1
    42    21    22    2
    43    22    23    1
    44    23    24    1
    45    23    44    1
    46    24    25    2
    47    26    27   ar
    48    27    45    1
@<TRIPOS>SUBSTRUCTURE
     1 ZINC000822449555        1 TEMP              0 ****  ****    0 ROOT


##########                                Name:    ZINC000002873519
##########                DOCK_Rotatable_Bonds:                   5
##########                         Heavy_Atoms:                  25
##########                    Molecular_Weight:             375.207
##########                DOCK_Rotatable_Bonds:                   5
##########                       Formal_Charge:               -0.02
##########                     HBond_Acceptors:                   6
##########                        HBond_Donors:                   0
##########                         Heavy_Atoms:                  25
##########                          Grid_Score:          -28.049374
##########                     Grid_vdw_energy:          -27.834112
##########                      Grid_es_energy:           -0.215261
##########           Internal_energy_repulsive:            7.288137

@<TRIPOS>MOLECULE
ZINC000002873519
 37 39 1 0 0
SMALL
USER_CHARGES


@<TRIPOS>ATOM
      1 C1          2.5452   -1.9640   49.3485 C.3     1  ZINC000002873519   -0.1500
      2 C2          2.4017   -0.5205   48.9400 C.2     1  ZINC000002873519    0.4500
      3 O3          3.1459    0.3139   49.3981 O.2     1  ZINC000002873519   -0.4800
      4 O4          1.4469   -0.1616   48.0666 O.3     1  ZINC000002873519   -0.2900
      5 C5          1.7364    0.8616   47.2230 C.ar    1  ZINC000002873519    0.1200
      6 C6          2.3864    0.6135   46.0256 C.ar    1  ZINC000002873519   -0.1100
      7 C7          2.6807    1.6554   45.1665 C.ar    1  ZINC000002873519   -0.0800
      8 C8          2.3294    2.9568   45.4929 C.ar    1  ZINC000002873519   -0.0400
      9 Cl9         2.7065    4.2529   44.4014 Cl      1  ZINC000002873519   -0.0500
     10 C10         1.6819    3.2259   46.6795 C.ar    1  ZINC000002873519   -0.0800
     11 C11         1.3723    2.1786   47.5581 C.ar    1  ZINC000002873519   -0.0700
     12 C12         0.6846    2.4545   48.8202 C.2     1  ZINC000002873519    0.0400
     13 C13        -0.6955    2.4405   48.8720 C.2     1  ZINC000002873519   -0.1900
     14 C14        -1.5588    2.6978   50.0376 C.2     1  ZINC000002873519   -0.2000
     15 C15        -2.8315    2.5723   49.6063 C.2     1  ZINC000002873519    0.1200
     16 C16        -4.0223    2.7507   50.4607 C.ar    1  ZINC000002873519   -0.0400
     17 C17        -5.2903    2.4258   49.9733 C.ar    1  ZINC000002873519   -0.0800
     18 C18        -6.3985    2.5948   50.7764 C.ar    1  ZINC000002873519   -0.1100
     19 C19        -6.2562    3.0859   52.0636 C.ar    1  ZINC000002873519   -0.0200
     20 Cl20       -7.6564    3.2957   53.0682 Cl      1  ZINC000002873519   -0.0600
     21 C21        -5.0018    3.4099   52.5528 C.ar    1  ZINC000002873519   -0.1100
     22 C22        -3.8848    3.2396   51.7620 C.ar    1  ZINC000002873519   -0.0800
     23 O23        -2.8756    2.2638   48.2947 O.3     1  ZINC000002873519   -0.2600
     24 C24        -1.6400    2.1709   47.7712 C.2     1  ZINC000002873519    0.5200
     25 O25        -1.3567    1.9076   46.6175 O.2     1  ZINC000002873519   -0.4200
     26 H26         1.9266   -2.1566   50.2250 H       1  ZINC000002873519    0.1100
     27 H27         2.2246   -2.6071   48.5289 H       1  ZINC000002873519    0.1000
     28 H28         3.5882   -2.1721   49.5870 H       1  ZINC000002873519    0.1100
     29 H29         2.6644   -0.3965   45.7627 H       1  ZINC000002873519    0.1500
     30 H30         3.1881    1.4548   44.2345 H       1  ZINC000002873519    0.1500
     31 H31         1.4106    4.2408   46.9300 H       1  ZINC000002873519    0.1500
     32 H32         1.2563    2.6690   49.7110 H       1  ZINC000002873519    0.1500
     33 H33        -1.2368    2.9386   51.0400 H       1  ZINC000002873519    0.1700
     34 H34        -5.4026    2.0434   48.9695 H       1  ZINC000002873519    0.1400
     35 H35        -7.3795    2.3440   50.4007 H       1  ZINC000002873519    0.1400
     36 H36        -4.8975    3.7928   53.5573 H       1  ZINC000002873519    0.1400
     37 H37        -2.9072    3.4927   52.1446 H       1  ZINC000002873519    0.1400
@<TRIPOS>BOND
     1     1     2    1
     2     1    26    1
     3     1    27    1
     4     1    28    1
     5     2     3    2
     6     2     4    1
     7     4     5    1
     8     5    11   ar
     9     5     6   ar
    10     6     7   ar
    11     6    29    1
    12     7     8   ar
    13     7    30    1
    14     8     9    1
    15     8    10   ar
    16    10    11   ar
    17    10    31    1
    18    11    12    1
    19    12    13    2
    20    12    32    1
    21    13    24    1
    22    13    14    1
    23    14    15    2
    24    14    33    1
    25    15    16    1
    26    15    23    1
    27    16    22   ar
    28    16    17   ar
    29    17    18   ar
    30    17    34    1
    31    18    19   ar
    32    18    35    1
    33    19    20    1
    34    19    21   ar
    35    21    22   ar
    36    21    36    1
    37    22    37    1
    38    23    24    1
    39    24    25    2
@<TRIPOS>SUBSTRUCTURE
     1 ZINC000002873519        1 TEMP              0 ****  ****    0 ROOT


##########                                Name:    ZINC000425987417
##########                DOCK_Rotatable_Bonds:                   9
##########                         Heavy_Atoms:                  25
##########                    Molecular_Weight:             357.419
##########                DOCK_Rotatable_Bonds:                   9
##########                       Formal_Charge:         -0.00999992
##########                     HBond_Acceptors:                   7
##########                        HBond_Donors:                   1
##########                         Heavy_Atoms:                  25
##########                          Grid_Score:          -27.993698
##########                     Grid_vdw_energy:          -27.824677
##########                      Grid_es_energy:           -0.169022
##########           Internal_energy_repulsive:           15.015534

@<TRIPOS>MOLECULE
ZINC000425987417
 51 52 1 0 0
SMALL
USER_CHARGES


@<TRIPOS>ATOM
      1 C1         -6.5699    1.9079   51.9476 C.3     1  ZINC000425987417   -0.1500
      2 C2         -5.8275    3.1207   52.5124 C.3     1  ZINC000425987417    0.0400
      3 N3         -4.4597    3.1503   51.9775 N.3     1  ZINC000425987417   -0.5300
      4 C4         -4.4507    3.6030   50.5799 C.3     1  ZINC000425987417    0.0400
      5 C5         -4.0585    2.4380   49.6690 C.3     1  ZINC000425987417    0.1400
      6 N6         -2.6221    2.5002   49.3877 N.am    1  ZINC000425987417   -0.7500
      7 C7         -2.1676    2.2505   48.1437 C.2     1  ZINC000425987417    0.7200
      8 O8         -2.9498    1.9738   47.2549 O.2     1  ZINC000425987417   -0.5800
      9 N9         -0.8462    2.3077   47.8849 N.am    1  ZINC000425987417   -0.6200
     10 C10        -0.3177    2.0404   46.5370 C.3     1  ZINC000425987417    0.1300
     11 C11         0.5515    0.7862   46.6135 C.3     1  ZINC000425987417   -0.1000
     12 C12         1.5022    0.8631   47.7789 C.ar    1  ZINC000425987417   -0.0600
     13 C13         2.6233    0.0431   47.7509 C.ar    1  ZINC000425987417   -0.1200
     14 C14         3.5293    0.0573   48.7912 C.ar    1  ZINC000425987417   -0.1100
     15 C15         3.3214    0.8927   49.8726 C.ar    1  ZINC000425987417   -0.1200
     16 C16         2.2104    1.7107   49.9015 C.ar    1  ZINC000425987417   -0.1100
     17 C17         1.3012    1.7015   48.8528 C.ar    1  ZINC000425987417   -0.0900
     18 C18         0.1225    2.6447   48.9336 C.3     1  ZINC000425987417    0.1800
     19 H19        -0.3522    2.5493   49.9101 H       1  ZINC000425987417    0.0900
     20 C20         0.6075    4.0832   48.7416 C.3     1  ZINC000425987417   -0.1600
     21 C21        -3.5873    3.9906   52.8087 C.3     1  ZINC000425987417    0.0500
     22 C22        -2.1291    3.7723   52.4004 C.3     1  ZINC000425987417   -0.1600
     23 C23        -1.2110    4.5237   53.3664 C.3     1  ZINC000425987417    0.4500
     24 F24        -1.3882    4.0249   54.6614 F       1  ZINC000425987417   -0.1800
     25 F25         0.1209    4.3468   52.9768 F       1  ZINC000425987417   -0.1800
     26 F26        -1.5262    5.8865   53.3445 F       1  ZINC000425987417   -0.1900
     27 H27        -6.0733    0.9939   52.2734 H       1  ZINC000425987417    0.0500
     28 H28        -7.5984    1.9112   52.3084 H       1  ZINC000425987417    0.0600
     29 H29        -6.5668    1.9548   50.8586 H       1  ZINC000425987417    0.0700
     30 H30        -6.3500    4.0330   52.2246 H       1  ZINC000425987417    0.0800
     31 H31        -5.7910    3.0504   53.5995 H       1  ZINC000425987417    0.0400
     32 H32        -5.4441    3.9592   50.3071 H       1  ZINC000425987417    0.0500
     33 H33        -3.7301    4.4127   50.4650 H       1  ZINC000425987417    0.0800
     34 H34        -4.2913    1.4954   50.1643 H       1  ZINC000425987417    0.0800
     35 H35        -4.6150    2.5045   48.7342 H       1  ZINC000425987417    0.0700
     36 H36        -1.9982    2.7209   50.0968 H       1  ZINC000425987417    0.3900
     37 H37        -1.1425    1.8758   45.8435 H       1  ZINC000425987417    0.1000
     38 H38         0.2833    2.8858   46.2022 H       1  ZINC000425987417    0.0700
     39 H39        -0.0894   -0.0876   46.7306 H       1  ZINC000425987417    0.0800
     40 H40         1.1230    0.6893   45.6903 H       1  ZINC000425987417    0.0900
     41 H41         2.7869   -0.6115   46.9077 H       1  ZINC000425987417    0.1200
     42 H42         4.3986   -0.5829   48.7608 H       1  ZINC000425987417    0.1200
     43 H43         4.0252    0.9048   50.6917 H       1  ZINC000425987417    0.1200
     44 H44         2.0471    2.3631   50.7465 H       1  ZINC000425987417    0.1200
     45 H45         1.0837    4.1789   47.7659 H       1  ZINC000425987417    0.0700
     46 H46        -0.2420    4.7637   48.7998 H       1  ZINC000425987417    0.0600
     47 H47         1.3262    4.3315   49.5226 H       1  ZINC000425987417    0.0700
     48 H48        -3.8510    5.0389   52.6679 H       1  ZINC000425987417    0.0500
     49 H49        -3.7153    3.7215   53.8571 H       1  ZINC000425987417    0.0900
     50 H50        -1.8980    2.7075   52.4335 H       1  ZINC000425987417    0.1200
     51 H51        -1.9754    4.1461   51.3881 H       1  ZINC000425987417    0.1100
@<TRIPOS>BOND
     1     1     2    1
     2     1    27    1
     3     1    28    1
     4     1    29    1
     5     2     3    1
     6     2    30    1
     7     2    31    1
     8     3     4    1
     9     3    21    1
    10     4     5    1
    11     4    32    1
    12     4    33    1
    13     5     6    1
    14     5    34    1
    15     5    35    1
    16     6     7   am
    17     6    36    1
    18     7     8    2
    19     7     9   am
    20     9    18    1
    21     9    10    1
    22    10    11    1
    23    10    37    1
    24    10    38    1
    25    11    12    1
    26    11    39    1
    27    11    40    1
    28    12    17   ar
    29    12    13   ar
    30    13    14   ar
    31    13    41    1
    32    14    15   ar
    33    14    42    1
    34    15    16   ar
    35    15    43    1
    36    16    17   ar
    37    16    44    1
    38    17    18    1
    39    18    19    1
    40    18    20    1
    41    20    45    1
    42    20    46    1
    43    20    47    1
    44    21    22    1
    45    21    48    1
    46    21    49    1
    47    22    23    1
    48    22    50    1
    49    22    51    1
    50    23    24    1
    51    23    25    1
    52    23    26    1
@<TRIPOS>SUBSTRUCTURE
     1 ZINC000425987417        1 TEMP              0 ****  ****    0 ROOT


##########                                Name:    ZINC001109404798
##########                DOCK_Rotatable_Bonds:                   7
##########                         Heavy_Atoms:                  25
##########                    Molecular_Weight:              360.48
##########                DOCK_Rotatable_Bonds:                   7
##########                       Formal_Charge:           0.0100002
##########                     HBond_Acceptors:                   7
##########                        HBond_Donors:                   1
##########                         Heavy_Atoms:                  25
##########                          Grid_Score:          -27.990225
##########                     Grid_vdw_energy:          -27.500731
##########                      Grid_es_energy:           -0.489495
##########           Internal_energy_repulsive:           27.330729

@<TRIPOS>MOLECULE
ZINC001109404798
 49 52 1 0 0
SMALL
USER_CHARGES


@<TRIPOS>ATOM
      1 C1          1.3157    4.4352   42.9570 C.3     1  ZINC001109404798   -0.0600
      2 C2          1.2716    3.8412   44.3412 C.2     1  ZINC001109404798    0.1700
      3 N3          2.2936    3.5941   45.1050 N.2     1  ZINC001109404798   -0.3900
      4 O4          1.9255    3.1174   46.1578 O.3     1  ZINC001109404798    0.1000
      5 C5          0.5933    3.0117   46.1660 C.2     1  ZINC001109404798    0.1900
      6 C6         -0.2573    2.4694   47.2856 C.3     1  ZINC001109404798    0.1600
      7 H7          0.3826    2.0043   48.0355 H       1  ZINC001109404798    0.1000
      8 C8         -1.2301    1.4280   46.7286 C.3     1  ZINC001109404798   -0.1500
      9 N9         -1.0149    3.5673   47.9010 N.3     1  ZINC001109404798   -0.4800
     10 C10        -0.0905    4.6447   48.4054 C.3     1  ZINC001109404798    0.0400
     11 H11         0.5015    5.1570   47.6470 H       1  ZINC001109404798    0.1100
     12 C12         0.7233    3.8608   49.4787 C.3     1  ZINC001109404798   -0.1600
     13 C13        -0.3004    2.8419   50.0364 C.3     1  ZINC001109404798   -0.1600
     14 C14        -1.5961    3.1462   49.2255 C.3     1  ZINC001109404798    0.0400
     15 H15        -2.3287    2.3399   49.1889 H       1  ZINC001109404798    0.1200
     16 C16        -2.1163    4.5029   49.7891 C.3     1  ZINC001109404798    0.1500
     17 H17        -3.1169    4.7162   49.4131 H       1  ZINC001109404798    0.1000
     18 N18        -2.1094    4.4896   51.2539 N.am    1  ZINC001109404798   -0.7200
     19 C19        -3.2619    4.3192   51.9316 C.2     1  ZINC001109404798    0.5100
     20 O20        -4.3044    4.1754   51.3288 O.2     1  ZINC001109404798   -0.5300
     21 C21        -3.2551    4.3072   53.4386 C.3     1  ZINC001109404798   -0.1300
     22 C22        -1.9056    3.7878   53.9385 C.3     1  ZINC001109404798   -0.0400
     23 C23        -1.9421    3.6577   55.4394 C.2     1  ZINC001109404798   -0.1000
     24 C24        -2.6301    4.4964   56.2157 C.2     1  ZINC001109404798   -0.2100
     25 S25        -2.4365    4.0329   57.9013 S.3     1  ZINC001109404798    0.1000
     26 C26        -1.4018    2.6864   57.4434 C.2     1  ZINC001109404798   -0.2100
     27 C27        -1.2691    2.6554   56.1165 C.2     1  ZINC001109404798   -0.1300
     28 C28        -1.0853    5.5419   49.2019 C.3     1  ZINC001109404798   -0.1100
     29 N29         0.1671    3.4748   45.0154 N.2     1  ZINC001109404798   -0.4800
     30 H30         1.2592    5.5216   43.0258 H       1  ZINC001109404798    0.0900
     31 H31         2.2475    4.1501   42.4687 H       1  ZINC001109404798    0.0900
     32 H32         0.4721    4.0637   42.3753 H       1  ZINC001109404798    0.0900
     33 H33        -0.6679    0.6134   46.2719 H       1  ZINC001109404798    0.0700
     34 H34        -1.8452    1.0358   47.5384 H       1  ZINC001109404798    0.0800
     35 H35        -1.8699    1.8930   45.9785 H       1  ZINC001109404798    0.0800
     36 H36         1.5669    3.3452   49.0196 H       1  ZINC001109404798    0.0700
     37 H37         1.0651    4.5318   50.2667 H       1  ZINC001109404798    0.0800
     38 H38         0.0357    1.8212   49.8537 H       1  ZINC001109404798    0.0700
     39 H39        -0.4660    3.0078   51.1008 H       1  ZINC001109404798    0.0800
     40 H40        -1.2755    4.6034   51.7361 H       1  ZINC001109404798    0.4000
     41 H41        -3.4156    5.3190   53.8107 H       1  ZINC001109404798    0.0900
     42 H42        -4.0515    3.6566   53.8003 H       1  ZINC001109404798    0.1000
     43 H43        -1.7043    2.8130   53.4941 H       1  ZINC001109404798    0.0800
     44 H44        -1.1192    4.4865   53.6534 H       1  ZINC001109404798    0.0800
     45 H45        -3.2159    5.3324   55.8633 H       1  ZINC001109404798    0.1600
     46 H46        -0.9473    1.9886   58.1311 H       1  ZINC001109404798    0.1600
     47 H47        -0.6750    1.9095   55.6094 H       1  ZINC001109404798    0.1400
     48 H48        -0.5562    6.0537   50.0060 H       1  ZINC001109404798    0.0800
     49 H49        -1.5899    6.2598   48.5553 H       1  ZINC001109404798    0.0900
@<TRIPOS>BOND
     1     1     2    1
     2     1    30    1
     3     1    31    1
     4     1    32    1
     5     2    29    1
     6     2     3    2
     7     3     4    1
     8     4     5    1
     9     5     6    1
    10     5    29    2
    11     6     7    1
    12     6     8    1
    13     6     9    1
    14     8    33    1
    15     8    34    1
    16     8    35    1
    17     9    14    1
    18     9    10    1
    19    10    11    1
    20    10    28    1
    21    10    12    1
    22    12    13    1
    23    12    36    1
    24    12    37    1
    25    13    14    1
    26    13    38    1
    27    13    39    1
    28    14    15    1
    29    14    16    1
    30    16    17    1
    31    16    18    1
    32    16    28    1
    33    18    19   am
    34    18    40    1
    35    19    20    2
    36    19    21    1
    37    21    22    1
    38    21    41    1
    39    21    42    1
    40    22    23    1
    41    22    43    1
    42    22    44    1
    43    23    27    1
    44    23    24    2
    45    24    25    1
    46    24    45    1
    47    25    26    1
    48    26    27    2
    49    26    46    1
    50    27    47    1
    51    28    48    1
    52    28    49    1
@<TRIPOS>SUBSTRUCTURE
     1 ZINC001109404798        1 TEMP              0 ****  ****    0 ROOT


##########                                Name:    ZINC000301324012
##########                DOCK_Rotatable_Bonds:                   7
##########                         Heavy_Atoms:                  28
##########                    Molecular_Weight:               415.9
##########                DOCK_Rotatable_Bonds:                   7
##########                       Formal_Charge:          -0.0100002
##########                     HBond_Acceptors:                   8
##########                        HBond_Donors:                   2
##########                         Heavy_Atoms:                  28
##########                          Grid_Score:          -27.982546
##########                     Grid_vdw_energy:          -28.541300
##########                      Grid_es_energy:            0.558753
##########           Internal_energy_repulsive:           13.705193

@<TRIPOS>MOLECULE
ZINC000301324012
 46 48 1 0 0
SMALL
USER_CHARGES


@<TRIPOS>ATOM
      1 C1         -6.8964    1.1758   51.8382 C.3     1  ZINC000301324012   -0.1600
      2 C2         -6.3169    2.5851   51.7005 C.3     1  ZINC000301324012    0.2000
      3 H3         -5.9468    2.9220   52.6688 H       1  ZINC000301324012    0.1100
      4 N4         -5.2146    2.5678   50.7357 N.am    1  ZINC000301324012   -0.7100
      5 C5         -4.3204    3.5759   50.7158 C.2     1  ZINC000301324012    0.5500
      6 O6         -4.4276    4.4989   51.4995 O.2     1  ZINC000301324012   -0.5300
      7 C7         -3.2090    3.5592   49.7410 C.ar    1  ZINC000301324012   -0.0700
      8 C8         -2.2649    4.5871   49.7366 C.ar    1  ZINC000301324012   -0.1100
      9 C9         -1.2300    4.5652   48.8246 C.ar    1  ZINC000301324012   -0.0200
     10 C10        -1.1270    3.5275   47.9154 C.ar    1  ZINC000301324012   -0.6600
     11 S11         0.1977    3.5074   46.7536 S.o2    1  ZINC000301324012    2.6900
     12 O12        -0.0098    2.3694   45.9282 O.2     1  ZINC000301324012   -0.9400
     13 O13         0.3033    4.8291   46.2428 O.2     1  ZINC000301324012   -0.9400
     14 N14         1.5903    3.2215   47.6028 N.am    1  ZINC000301324012   -1.0500
     15 C15         1.7280    2.0442   48.3431 C.ar    1  ZINC000301324012    0.1600
     16 C16         1.8878    0.8280   47.6928 C.ar    1  ZINC000301324012   -0.1600
     17 C17         2.0238   -0.3341   48.4276 C.ar    1  ZINC000301324012   -0.0800
     18 C18         2.0005   -0.2875   49.8091 C.ar    1  ZINC000301324012   -0.1200
     19 C19         1.8415    0.9220   50.4610 C.ar    1  ZINC000301324012   -0.0900
     20 C20         1.7112    2.0889   49.7326 C.ar    1  ZINC000301324012   -0.0600
     21 Cl21        1.5117    3.6068   50.5512 Cl      1  ZINC000301324012   -0.0600
     22 C22        -2.0593    2.5051   47.9147 C.ar    1  ZINC000301324012   -0.0200
     23 C23        -3.0960    2.5123   48.8248 C.ar    1  ZINC000301324012   -0.0800
     24 C24        -7.3916    3.5252   51.2186 C.ar    1  ZINC000301324012    0.1200
     25 C25        -7.3581    4.8532   51.5990 C.ar    1  ZINC000301324012   -0.1600
     26 C26        -8.3515    5.7101   51.1498 C.ar    1  ZINC000301324012   -0.0700
     27 C27        -9.3454    5.1964   50.3312 C.ar    1  ZINC000301324012   -0.1700
     28 C28        -9.3134    3.8567   49.9924 C.ar    1  ZINC000301324012    0.1100
     29 N29        -8.3501    3.0721   50.4342 N.ar    1  ZINC000301324012   -0.4900
     30 H30        -7.7164    1.1886   52.5560 H       1  ZINC000301324012    0.0700
     31 H31        -7.2663    0.8389   50.8698 H       1  ZINC000301324012    0.0600
     32 H32        -6.1190    0.4958   52.1867 H       1  ZINC000301324012    0.0700
     33 H33        -5.1284    1.8307   50.1110 H       1  ZINC000301324012    0.4100
     34 H34        -2.3446    5.3982   50.4454 H       1  ZINC000301324012    0.1400
     35 H35        -0.4987    5.3600   48.8202 H       1  ZINC000301324012    0.1500
     36 H36         2.3103    3.8713   47.5865 H       1  ZINC000301324012    0.4300
     37 H37         1.9055    0.7903   46.6137 H       1  ZINC000301324012    0.1700
     38 H38         2.1481   -1.2803   47.9220 H       1  ZINC000301324012    0.1400
     39 H39         2.1063   -1.1977   50.3807 H       1  ZINC000301324012    0.1400
     40 H40         1.8237    0.9549   51.5403 H       1  ZINC000301324012    0.1400
     41 H41        -1.9730    1.6977   47.2025 H       1  ZINC000301324012    0.1500
     42 H42        -3.8229    1.7134   48.8234 H       1  ZINC000301324012    0.1500
     43 H43        -6.5684    5.2191   52.2385 H       1  ZINC000301324012    0.1400
     44 H44        -8.3511    6.7528   51.4312 H       1  ZINC000301324012    0.1400
     45 H45       -10.1350    5.8348   49.9632 H       1  ZINC000301324012    0.1400
     46 H46       -10.0842    3.4487   49.3555 H       1  ZINC000301324012    0.1600
@<TRIPOS>BOND
     1     1     2    1
     2     1    30    1
     3     1    31    1
     4     1    32    1
     5     2     3    1
     6     2     4    1
     7     2    24    1
     8     4     5   am
     9     4    33    1
    10     5     6    2
    11     5     7    1
    12     7    23   ar
    13     7     8   ar
    14     8     9   ar
    15     8    34    1
    16     9    10   ar
    17     9    35    1
    18    10    11    1
    19    10    22   ar
    20    11    12    2
    21    11    13    2
    22    11    14   am
    23    14    15    1
    24    14    36    1
    25    15    20   ar
    26    15    16   ar
    27    16    17   ar
    28    16    37    1
    29    17    18   ar
    30    17    38    1
    31    18    19   ar
    32    18    39    1
    33    19    20   ar
    34    19    40    1
    35    20    21    1
    36    22    23   ar
    37    22    41    1
    38    23    42    1
    39    24    29   ar
    40    24    25   ar
    41    25    26   ar
    42    25    43    1
    43    26    27   ar
    44    26    44    1
    45    27    28   ar
    46    27    45    1
    47    28    29   ar
    48    28    46    1
@<TRIPOS>SUBSTRUCTURE
     1 ZINC000301324012        1 TEMP              0 ****  ****    0 ROOT


##########                                Name:    ZINC000245764166
##########                DOCK_Rotatable_Bonds:                   8
##########                         Heavy_Atoms:                  26
##########                    Molecular_Weight:             359.512
##########                DOCK_Rotatable_Bonds:                   8
##########                       Formal_Charge:          -0.0100008
##########                     HBond_Acceptors:                   5
##########                        HBond_Donors:                   2
##########                         Heavy_Atoms:                  26
##########                          Grid_Score:          -27.970592
##########                     Grid_vdw_energy:          -27.433111
##########                      Grid_es_energy:           -0.537481
##########           Internal_energy_repulsive:           33.271866

@<TRIPOS>MOLECULE
ZINC000245764166
 59 61 1 0 0
SMALL
USER_CHARGES


@<TRIPOS>ATOM
      1 C1          3.2588    2.1401   47.2185 C.3     1  ZINC000245764166    0.0200
      2 N2          2.0483    2.3069   48.0338 N.3     1  ZINC000245764166   -0.5300
      3 C3          2.3537    2.1684   49.4641 C.3     1  ZINC000245764166    0.0600
      4 C4          2.7809    0.7521   49.7516 C.ar    1  ZINC000245764166   -0.0800
      5 C5          4.1183    0.4077   49.6910 C.ar    1  ZINC000245764166   -0.1000
      6 C6          4.5102   -0.8914   49.9546 C.ar    1  ZINC000245764166   -0.1200
      7 C7          3.5648   -1.8461   50.2795 C.ar    1  ZINC000245764166   -0.1200
      8 C8          2.2274   -1.5016   50.3410 C.ar    1  ZINC000245764166   -0.1200
      9 C9          1.8360   -0.2015   50.0815 C.ar    1  ZINC000245764166   -0.1200
     10 C10         1.4002    3.5956   47.7563 C.3     1  ZINC000245764166    0.0500
     11 C11         0.2673    3.3902   46.7487 C.3     1  ZINC000245764166    0.1900
     12 C12         0.5918    4.1415   45.4560 C.3     1  ZINC000245764166   -0.1600
     13 C13         0.1171    1.8978   46.4472 C.3     1  ZINC000245764166   -0.1500
     14 N14        -0.9847    3.9032   47.3105 N.am    1  ZINC000245764166   -0.7400
     15 C15        -1.4373    3.4323   48.4894 C.2     1  ZINC000245764166    0.7000
     16 O16        -0.8072    2.5807   49.0862 O.2     1  ZINC000245764166   -0.5800
     17 N17        -2.5883    3.9055   49.0070 N.am    1  ZINC000245764166   -0.7500
     18 C18        -3.0810    3.3924   50.2877 C.3     1  ZINC000245764166    0.1800
     19 H19        -2.2983    2.8003   50.7619 H       1  ZINC000245764166    0.0900
     20 C20        -4.2997    2.5073   50.0389 C.3     1  ZINC000245764166   -0.1300
     21 C21        -4.7668    1.9302   51.3798 C.3     1  ZINC000245764166   -0.1100
     22 C22        -5.2107    3.0880   52.2735 C.3     1  ZINC000245764166   -0.1100
     23 C23        -4.0851    4.0689   52.5035 C.3     1  ZINC000245764166    0.0900
     24 H24        -4.4720    4.9331   53.0434 H       1  ZINC000245764166    0.0600
     25 O25        -2.9935    3.5076   53.2449 O.3     1  ZINC000245764166   -0.3600
     26 C26        -1.8829    4.4092   53.0687 C.3     1  ZINC000245764166    0.0500
     27 C27        -2.0981    5.1464   51.7313 C.3     1  ZINC000245764166   -0.1500
     28 C28        -3.4425    4.5694   51.1963 C.3     1  ZINC000245764166   -0.1300
     29 H29        -4.0509    5.3211   50.6935 H       1  ZINC000245764166    0.1000
     30 H30         3.7094    1.1706   47.4311 H       1  ZINC000245764166    0.0800
     31 H31         2.9958    2.1946   46.1622 H       1  ZINC000245764166    0.0700
     32 H32         3.9697    2.9313   47.4572 H       1  ZINC000245764166    0.0200
     33 H33         3.1594    2.8522   49.7314 H       1  ZINC000245764166    0.0400
     34 H34         1.4659    2.4062   50.0499 H       1  ZINC000245764166    0.1100
     35 H35         4.8570    1.1537   49.4372 H       1  ZINC000245764166    0.1200
     36 H36         5.5551   -1.1606   49.9065 H       1  ZINC000245764166    0.1200
     37 H37         3.8709   -2.8612   50.4848 H       1  ZINC000245764166    0.1200
     38 H38         1.4888   -2.2476   50.5945 H       1  ZINC000245764166    0.1200
     39 H39         0.7912    0.0677   50.1296 H       1  ZINC000245764166    0.1200
     40 H40         0.9940    4.0048   48.6813 H       1  ZINC000245764166    0.0400
     41 H41         2.1326    4.2891   47.3430 H       1  ZINC000245764166    0.1000
     42 H42         1.5234    3.7598   45.0381 H       1  ZINC000245764166    0.0700
     43 H43        -0.2153    3.9952   44.7383 H       1  ZINC000245764166    0.0800
     44 H44         0.6988    5.2048   45.6708 H       1  ZINC000245764166    0.0500
     45 H45        -0.2338    1.3802   47.3401 H       1  ZINC000245764166    0.0600
     46 H46        -0.6034    1.7606   45.6410 H       1  ZINC000245764166    0.0800
     47 H47         1.0817    1.4892   46.1459 H       1  ZINC000245764166    0.0600
     48 H48        -1.4881    4.5818   46.8339 H       1  ZINC000245764166    0.3900
     49 H49        -3.0903    4.5858   48.5316 H       1  ZINC000245764166    0.3900
     50 H50        -5.0997    3.1018   49.5979 H       1  ZINC000245764166    0.0600
     51 H51        -4.0300    1.6944   49.3648 H       1  ZINC000245764166    0.0700
     52 H52        -5.6036    1.2511   51.2158 H       1  ZINC000245764166    0.0700
     53 H53        -3.9455    1.3935   51.8548 H       1  ZINC000245764166    0.0700
     54 H54        -6.0438    3.6061   51.7986 H       1  ZINC000245764166    0.0800
     55 H55        -5.5398    2.6912   53.2340 H       1  ZINC000245764166    0.0700
     56 H56        -1.8555    5.1279   53.8877 H       1  ZINC000245764166    0.0600
     57 H57        -0.9501    3.8463   53.0356 H       1  ZINC000245764166    0.0800
     58 H58        -2.1822    6.2207   51.8960 H       1  ZINC000245764166    0.0800
     59 H59        -1.2854    4.9273   51.0388 H       1  ZINC000245764166    0.0800
@<TRIPOS>BOND
     1     1     2    1
     2     1    30    1
     3     1    31    1
     4     1    32    1
     5     2     3    1
     6     2    10    1
     7     3     4    1
     8     3    33    1
     9     3    34    1
    10     4     9   ar
    11     4     5   ar
    12     5     6   ar
    13     5    35    1
    14     6     7   ar
    15     6    36    1
    16     7     8   ar
    17     7    37    1
    18     8     9   ar
    19     8    38    1
    20     9    39    1
    21    10    11    1
    22    10    40    1
    23    10    41    1
    24    11    12    1
    25    11    13    1
    26    11    14    1
    27    12    42    1
    28    12    43    1
    29    12    44    1
    30    13    45    1
    31    13    46    1
    32    13    47    1
    33    14    15   am
    34    14    48    1
    35    15    16    2
    36    15    17   am
    37    17    18    1
    38    17    49    1
    39    18    19    1
    40    18    28    1
    41    18    20    1
    42    20    21    1
    43    20    50    1
    44    20    51    1
    45    21    22    1
    46    21    52    1
    47    21    53    1
    48    22    23    1
    49    22    54    1
    50    22    55    1
    51    23    24    1
    52    23    28    1
    53    23    25    1
    54    25    26    1
    55    26    27    1
    56    26    56    1
    57    26    57    1
    58    27    28    1
    59    27    58    1
    60    27    59    1
    61    28    29    1
@<TRIPOS>SUBSTRUCTURE
     1 ZINC000245764166        1 TEMP              0 ****  ****    0 ROOT


##########                                Name:    ZINC000811540126
##########                DOCK_Rotatable_Bonds:                   7
##########                         Heavy_Atoms:                  21
##########                    Molecular_Weight:             397.212
##########                DOCK_Rotatable_Bonds:                   7
##########                       Formal_Charge:           0.0100001
##########                     HBond_Acceptors:                   4
##########                        HBond_Donors:                   3
##########                         Heavy_Atoms:                  21
##########                          Grid_Score:          -27.969839
##########                     Grid_vdw_energy:          -24.344894
##########                      Grid_es_energy:           -3.624945
##########           Internal_energy_repulsive:            8.694489

@<TRIPOS>MOLECULE
ZINC000811540126
 37 38 1 0 0
SMALL
USER_CHARGES


@<TRIPOS>ATOM
      1 C1         -0.1990    2.2842   56.3647 C.3     1  ZINC000811540126   -0.1600
      2 C2         -1.2693    3.3772   56.3329 C.3     1  ZINC000811540126    0.1200
      3 H3         -0.7892    4.3543   56.2791 H       1  ZINC000811540126    0.1000
      4 N4         -2.1254    3.1884   55.1593 N.am    1  ZINC000811540126   -0.7200
      5 C5         -1.7875    3.7496   53.9813 C.2     1  ZINC000811540126    0.5700
      6 O6         -0.7728    4.4137   53.8933 O.2     1  ZINC000811540126   -0.5100
      7 C7         -2.6487    3.5579   52.7990 C.ar    1  ZINC000811540126   -0.1600
      8 C8         -2.0875    3.1939   51.5728 C.ar    1  ZINC000811540126   -0.0400
      9 C9         -2.8980    3.0164   50.4716 C.ar    1  ZINC000811540126   -0.1200
     10 I10        -2.0547    2.4705   48.6332 I       1  ZINC000811540126   -0.0300
     11 C11        -4.2677    3.1972   50.5756 C.ar    1  ZINC000811540126   -0.0400
     12 C12        -4.8351    3.5575   51.7820 C.ar    1  ZINC000811540126   -0.1500
     13 C13        -4.0355    3.7345   52.9010 C.ar    1  ZINC000811540126    0.1900
     14 O14        -4.5918    4.0880   54.0868 O.3     1  ZINC000811540126   -0.4700
     15 C15        -2.1192    3.2957   57.6026 C.3     1  ZINC000811540126    0.1400
     16 H16        -2.4665    2.2720   57.7423 H       1  ZINC000811540126    0.1300
     17 O17        -3.2444    4.1679   57.4795 O.3     1  ZINC000811540126   -0.5400
     18 C18        -1.2893    3.7109   58.7901 C.ar    1  ZINC000811540126   -0.1200
     19 C19        -1.0722    5.0517   59.0466 C.ar    1  ZINC000811540126   -0.1100
     20 C20        -0.3110    5.4327   60.1358 C.ar    1  ZINC000811540126   -0.1100
     21 C21         0.2327    4.4727   60.9687 C.ar    1  ZINC000811540126   -0.1200
     22 C22         0.0149    3.1318   60.7126 C.ar    1  ZINC000811540126   -0.1100
     23 C23        -0.7499    2.7511   59.6259 C.ar    1  ZINC000811540126   -0.1100
     24 H24         0.4065    2.3422   55.4602 H       1  ZINC000811540126    0.0600
     25 H25         0.4379    2.4246   57.2380 H       1  ZINC000811540126    0.0700
     26 H26        -0.6791    1.3071   56.4186 H       1  ZINC000811540126    0.0700
     27 H27        -2.9354    2.6594   55.2298 H       1  ZINC000811540126    0.3900
     28 H28        -1.0203    3.0521   51.4874 H       1  ZINC000811540126    0.1300
     29 H29        -4.8953    3.0558   49.7082 H       1  ZINC000811540126    0.1400
     30 H30        -5.9035    3.6969   51.8551 H       1  ZINC000811540126    0.1500
     31 H31        -4.1673    3.6844   54.8562 H       1  ZINC000811540126    0.4000
     32 H32        -3.8589    4.1246   58.2247 H       1  ZINC000811540126    0.3700
     33 H33        -1.4970    5.8018   58.3959 H       1  ZINC000811540126    0.1100
     34 H34        -0.1408    6.4803   60.3359 H       1  ZINC000811540126    0.1200
     35 H35         0.8280    4.7702   61.8193 H       1  ZINC000811540126    0.1200
     36 H36         0.4400    2.3818   61.3632 H       1  ZINC000811540126    0.1300
     37 H37        -0.9201    1.7035   59.4258 H       1  ZINC000811540126    0.1200
@<TRIPOS>BOND
     1     1     2    1
     2     1    24    1
     3     1    25    1
     4     1    26    1
     5     2     3    1
     6     2     4    1
     7     2    15    1
     8     4     5   am
     9     4    27    1
    10     5     6    2
    11     5     7    1
    12     7    13   ar
    13     7     8   ar
    14     8     9   ar
    15     8    28    1
    16     9    10    1
    17     9    11   ar
    18    11    12   ar
    19    11    29    1
    20    12    13   ar
    21    12    30    1
    22    13    14    1
    23    14    31    1
    24    15    16    1
    25    15    17    1
    26    15    18    1
    27    17    32    1
    28    18    23   ar
    29    18    19   ar
    30    19    20   ar
    31    19    33    1
    32    20    21   ar
    33    20    34    1
    34    21    22   ar
    35    21    35    1
    36    22    23   ar
    37    22    36    1
    38    23    37    1
@<TRIPOS>SUBSTRUCTURE
     1 ZINC000811540126        1 TEMP              0 ****  ****    0 ROOT


##########                                Name:    ZINC001310073555
##########                DOCK_Rotatable_Bonds:                  12
##########                         Heavy_Atoms:                  27
##########                    Molecular_Weight:             380.484
##########                DOCK_Rotatable_Bonds:                  12
##########                       Formal_Charge:          0.00999888
##########                     HBond_Acceptors:                   7
##########                        HBond_Donors:                   2
##########                         Heavy_Atoms:                  27
##########                          Grid_Score:          -27.943750
##########                     Grid_vdw_energy:          -26.660816
##########                      Grid_es_energy:           -1.282934
##########           Internal_energy_repulsive:           39.713417

@<TRIPOS>MOLECULE
ZINC001310073555
 59 59 1 0 0
SMALL
USER_CHARGES


@<TRIPOS>ATOM
      1 C1        -10.5593    4.2904   53.5669 C.3     1  ZINC001310073555   -0.1600
      2 C2        -10.4304    2.7884   53.3054 C.3     1  ZINC001310073555   -0.1100
      3 C3         -9.0090    2.3325   53.6410 C.3     1  ZINC001310073555   -0.0600
      4 C4         -8.7430    0.9728   52.9920 C.3     1  ZINC001310073555   -0.1100
      5 C5         -9.8235   -0.0197   53.4261 C.3     1  ZINC001310073555   -0.1600
      6 C6         -8.0055    3.3571   53.1081 C.3     1  ZINC001310073555    0.1600
      7 N7         -6.6718    2.7533   53.0567 N.am    1  ZINC001310073555   -0.7400
      8 C8         -5.8549    3.0114   52.0162 C.2     1  ZINC001310073555    0.7100
      9 O9         -6.2244    3.7465   51.1208 O.2     1  ZINC001310073555   -0.5700
     10 N10        -4.6285    2.4546   51.9681 N.am    1  ZINC001310073555   -0.6700
     11 C11        -3.7776    2.7233   50.8844 C.ar    1  ZINC001310073555    0.1000
     12 C12        -4.0456    2.1754   49.6394 C.ar    1  ZINC001310073555   -0.0400
     13 C13        -3.2078    2.4399   48.5722 C.ar    1  ZINC001310073555   -0.2200
     14 C14        -2.0982    3.2537   48.7440 C.ar    1  ZINC001310073555    0.1500
     15 O15        -1.2760    3.5120   47.6923 O.3     1  ZINC001310073555   -0.3200
     16 C16        -0.1442    2.6553   47.5278 C.3     1  ZINC001310073555    0.0300
     17 C17        -1.8265    3.8050   49.9876 C.ar    1  ZINC001310073555   -0.2300
     18 C18        -2.6664    3.5454   51.0575 C.ar    1  ZINC001310073555    0.1400
     19 O19        -2.4017    4.0847   52.2775 O.3     1  ZINC001310073555   -0.3100
     20 C20        -2.9434    5.3796   52.5456 C.3     1  ZINC001310073555    0.0300
     21 C21        -8.8594    2.2133   55.1358 C.2     1  ZINC001310073555    0.4800
     22 O22        -9.8254    1.9786   55.8228 O.2     1  ZINC001310073555   -0.5000
     23 O23        -7.6533    2.3678   55.7042 O.3     1  ZINC001310073555   -0.3400
     24 C24        -7.5837    3.2109   56.8842 C.3     1  ZINC001310073555    0.1200
     25 C25        -8.4840    4.4328   56.6918 C.3     1  ZINC001310073555   -0.1800
     26 C26        -8.0536    2.4183   58.1057 C.3     1  ZINC001310073555   -0.1400
     27 C27        -6.1399    3.6698   57.0986 C.3     1  ZINC001310073555   -0.1800
     28 H28       -11.5720    4.6152   53.3278 H       1  ZINC001310073555    0.0600
     29 H29       -10.3503    4.4957   54.6169 H       1  ZINC001310073555    0.0500
     30 H30        -9.8476    4.8304   52.9425 H       1  ZINC001310073555    0.0600
     31 H31       -11.1422    2.2485   53.9299 H       1  ZINC001310073555    0.0800
     32 H32       -10.6395    2.5832   52.2555 H       1  ZINC001310073555    0.0800
     33 H33        -8.7611    1.0781   51.9072 H       1  ZINC001310073555    0.0800
     34 H34        -7.7655    0.6057   53.3051 H       1  ZINC001310073555    0.0800
     35 H35        -9.8053   -0.1250   54.5108 H       1  ZINC001310073555    0.0600
     36 H36       -10.8009    0.3473   53.1130 H       1  ZINC001310073555    0.0500
     37 H37        -9.6340   -0.9884   52.9638 H       1  ZINC001310073555    0.0600
     38 H38        -8.3020    3.6690   52.1067 H       1  ZINC001310073555    0.0800
     39 H39        -7.9867    4.2244   53.7681 H       1  ZINC001310073555    0.0800
     40 H40        -6.3765    2.1679   53.7715 H       1  ZINC001310073555    0.4000
     41 H41        -4.3337    1.8681   52.6823 H       1  ZINC001310073555    0.4100
     42 H42        -4.9092    1.5413   49.5034 H       1  ZINC001310073555    0.1500
     43 H43        -3.4175    2.0117   47.6031 H       1  ZINC001310073555    0.1300
     44 H44         0.4873    2.7134   48.4144 H       1  ZINC001310073555    0.0600
     45 H45        -0.4829    1.6285   47.3896 H       1  ZINC001310073555    0.0600
     46 H46         0.4261    2.9705   46.6542 H       1  ZINC001310073555    0.1000
     47 H47        -0.9621    4.4386   50.1205 H       1  ZINC001310073555    0.1400
     48 H48        -2.6582    5.6918   53.5501 H       1  ZINC001310073555    0.1000
     49 H49        -2.5550    6.0935   51.8192 H       1  ZINC001310073555    0.0600
     50 H50        -4.0303    5.3412   52.4718 H       1  ZINC001310073555    0.0600
     51 H51        -9.5125    4.1059   56.5391 H       1  ZINC001310073555    0.0600
     52 H52        -8.4318    5.0658   57.5777 H       1  ZINC001310073555    0.0700
     53 H53        -8.1492    4.9975   55.8216 H       1  ZINC001310073555    0.0800
     54 H54        -7.4121    1.5479   58.2428 H       1  ZINC001310073555    0.0700
     55 H55        -8.0013    3.0513   58.9916 H       1  ZINC001310073555    0.0800
     56 H56        -9.0821    2.0914   57.9530 H       1  ZINC001310073555    0.0700
     57 H57        -5.8051    4.2345   56.2285 H       1  ZINC001310073555    0.0800
     58 H58        -6.0877    4.3027   57.9845 H       1  ZINC001310073555    0.0700
     59 H59        -5.4985    2.7993   57.2358 H       1  ZINC001310073555    0.0600
@<TRIPOS>BOND
     1     1     2    1
     2     1    28    1
     3     1    29    1
     4     1    30    1
     5     2     3    1
     6     2    31    1
     7     2    32    1
     8     3     4    1
     9     3     6    1
    10     3    21    1
    11     4     5    1
    12     4    33    1
    13     4    34    1
    14     5    35    1
    15     5    36    1
    16     5    37    1
    17     6     7    1
    18     6    38    1
    19     6    39    1
    20     7     8   am
    21     7    40    1
    22     8     9    2
    23     8    10   am
    24    10    11    1
    25    10    41    1
    26    11    18   ar
    27    11    12   ar
    28    12    13   ar
    29    12    42    1
    30    13    14   ar
    31    13    43    1
    32    14    15    1
    33    14    17   ar
    34    15    16    1
    35    16    44    1
    36    16    45    1
    37    16    46    1
    38    17    18   ar
    39    17    47    1
    40    18    19    1
    41    19    20    1
    42    20    48    1
    43    20    49    1
    44    20    50    1
    45    21    22    2
    46    21    23    1
    47    23    24    1
    48    24    25    1
    49    24    26    1
    50    24    27    1
    51    25    51    1
    52    25    52    1
    53    25    53    1
    54    26    54    1
    55    26    55    1
    56    26    56    1
    57    27    57    1
    58    27    58    1
    59    27    59    1
@<TRIPOS>SUBSTRUCTURE
     1 ZINC001310073555        1 TEMP              0 ****  ****    0 ROOT


##########                                Name:    ZINC000271662144
##########                DOCK_Rotatable_Bonds:                   8
##########                         Heavy_Atoms:                  26
##########                    Molecular_Weight:             390.402
##########                DOCK_Rotatable_Bonds:                   8
##########                       Formal_Charge:          0.00999944
##########                     HBond_Acceptors:                   9
##########                        HBond_Donors:                   3
##########                         Heavy_Atoms:                  26
##########                          Grid_Score:          -27.932779
##########                     Grid_vdw_energy:          -27.411007
##########                      Grid_es_energy:           -0.521773
##########           Internal_energy_repulsive:           14.710768

@<TRIPOS>MOLECULE
ZINC000271662144
 44 45 1 0 0
SMALL
USER_CHARGES


@<TRIPOS>ATOM
      1 C1         -2.4702    5.9337   51.0001 C.3     1  ZINC000271662144   -0.1400
      2 C2         -2.9269    4.4898   50.7827 C.3     1  ZINC000271662144    0.1200
      3 H3         -3.7440    4.4719   50.0616 H       1  ZINC000271662144    0.0600
      4 N4         -3.3869    3.9244   52.0581 N.3     1  ZINC000271662144   -0.6700
      5 C5         -4.8300    3.6516   52.0231 C.3     1  ZINC000271662144    0.1300
      6 H6         -5.2983    4.2713   51.2583 H       1  ZINC000271662144    0.1100
      7 C7         -5.0621    2.1753   51.6959 C.3     1  ZINC000271662144   -0.2000
      8 C8         -5.8924    2.0610   50.4158 C.3     1  ZINC000271662144    0.4600
      9 F9         -6.9383    2.9893   50.4539 F       1  ZINC000271662144   -0.1800
     10 F10        -5.0789    2.3202   49.3076 F       1  ZINC000271662144   -0.1800
     11 F11        -6.4193    0.7688   50.3156 F       1  ZINC000271662144   -0.1700
     12 C12        -5.4339    3.9695   53.3666 C.ar    1  ZINC000271662144   -0.0900
     13 C13        -6.7768    3.7320   53.5939 C.ar    1  ZINC000271662144   -0.0600
     14 C14        -7.3318    4.0231   54.8255 C.ar    1  ZINC000271662144   -0.1600
     15 C15        -6.5422    4.5524   55.8323 C.ar    1  ZINC000271662144    0.1000
     16 F16        -7.0837    4.8369   57.0370 F       1  ZINC000271662144   -0.1400
     17 C17        -5.1974    4.7894   55.6038 C.ar    1  ZINC000271662144   -0.1500
     18 C18        -4.6435    4.4930   54.3727 C.ar    1  ZINC000271662144   -0.0700
     19 C19        -1.7750    3.6724   50.2572 C.ar    1  ZINC000271662144   -0.1100
     20 C20        -0.6722    3.4386   51.0566 C.ar    1  ZINC000271662144   -0.0400
     21 C21         0.3846    2.6886   50.5745 C.ar    1  ZINC000271662144   -0.1400
     22 C22         0.3378    2.1724   49.2933 C.ar    1  ZINC000271662144   -0.0200
     23 C23        -0.7658    2.4055   48.4938 C.ar    1  ZINC000271662144   -0.6800
     24 S24        -0.8251    1.7478   46.8602 S.o2    1  ZINC000271662144    2.7000
     25 N25        -0.1416    2.8718   45.8543 N.am    1  ZINC000271662144   -1.2500
     26 O26         0.0403    0.6208   46.8497 O.2     1  ZINC000271662144   -0.9600
     27 O27        -2.1994    1.6757   46.5065 O.2     1  ZINC000271662144   -0.9600
     28 C28        -1.8240    3.1516   48.9773 C.ar    1  ZINC000271662144   -0.0100
     29 H29        -3.3034    6.5250   51.3802 H       1  ZINC000271662144    0.0600
     30 H30        -1.6530    5.9517   51.7213 H       1  ZINC000271662144    0.0700
     31 H31        -2.1289    6.3533   50.0537 H       1  ZINC000271662144    0.0600
     32 H32        -2.8672    3.0920   52.2930 H       1  ZINC000271662144    0.3500
     33 H33        -4.1021    1.6796   51.5516 H       1  ZINC000271662144    0.1100
     34 H34        -5.5961    1.7003   52.5189 H       1  ZINC000271662144    0.1200
     35 H35        -7.3924    3.3191   52.8084 H       1  ZINC000271662144    0.1300
     36 H36        -8.3809    3.8382   55.0026 H       1  ZINC000271662144    0.1400
     37 H37        -4.5807    5.2026   56.3882 H       1  ZINC000271662144    0.1400
     38 H38        -3.5945    4.6775   54.1944 H       1  ZINC000271662144    0.1300
     39 H39        -0.6356    3.8420   52.0578 H       1  ZINC000271662144    0.1400
     40 H40         1.2468    2.5064   51.1990 H       1  ZINC000271662144    0.1400
     41 H41         1.1637    1.5871   48.9164 H       1  ZINC000271662144    0.1400
     42 H42        -0.5249    3.7604   45.7885 H       1  ZINC000271662144    0.4200
     43 H43         0.6420    2.6416   45.3311 H       1  ZINC000271662144    0.4200
     44 H44        -2.6862    3.3337   48.3530 H       1  ZINC000271662144    0.1400
@<TRIPOS>BOND
     1     1     2    1
     2     1    29    1
     3     1    30    1
     4     1    31    1
     5     2     3    1
     6     2     4    1
     7     2    19    1
     8     4     5    1
     9     4    32    1
    10     5     6    1
    11     5     7    1
    12     5    12    1
    13     7     8    1
    14     7    33    1
    15     7    34    1
    16     8     9    1
    17     8    10    1
    18     8    11    1
    19    12    18   ar
    20    12    13   ar
    21    13    14   ar
    22    13    35    1
    23    14    15   ar
    24    14    36    1
    25    15    16    1
    26    15    17   ar
    27    17    18   ar
    28    17    37    1
    29    18    38    1
    30    19    28   ar
    31    19    20   ar
    32    20    21   ar
    33    20    39    1
    34    21    22   ar
    35    21    40    1
    36    22    23   ar
    37    22    41    1
    38    23    24    1
    39    23    28   ar
    40    24    25   am
    41    24    26    2
    42    24    27    2
    43    25    42    1
    44    25    43    1
    45    28    44    1
@<TRIPOS>SUBSTRUCTURE
     1 ZINC000271662144        1 TEMP              0 ****  ****    0 ROOT


##########                                Name:    ZINC000787750060
##########                DOCK_Rotatable_Bonds:                   6
##########                         Heavy_Atoms:                  24
##########                    Molecular_Weight:             347.438
##########                DOCK_Rotatable_Bonds:                   6
##########                       Formal_Charge:           0.0200003
##########                     HBond_Acceptors:                   7
##########                        HBond_Donors:                   2
##########                         Heavy_Atoms:                  24
##########                          Grid_Score:          -27.931686
##########                     Grid_vdw_energy:          -27.973202
##########                      Grid_es_energy:            0.041515
##########           Internal_energy_repulsive:            6.303623

@<TRIPOS>MOLECULE
ZINC000787750060
 45 47 1 0 0
SMALL
USER_CHARGES


@<TRIPOS>ATOM
      1 C1          1.6064    0.7937   47.4030 C.3     1  ZINC000787750060   -0.1200
      2 C2          0.4519    1.5010   48.0650 C.ar    1  ZINC000787750060   -0.0400
      3 C3         -0.6848    1.7986   47.3319 C.ar    1  ZINC000787750060   -0.1300
      4 C4         -1.7466    2.4452   47.9270 C.ar    1  ZINC000787750060   -0.0700
      5 C5         -1.6774    2.8020   49.2755 C.ar    1  ZINC000787750060   -0.1700
      6 C6         -2.8105    3.4939   49.9191 C.2     1  ZINC000787750060    0.5600
      7 O7         -2.9776    4.6846   49.7387 O.2     1  ZINC000787750060   -0.5200
      8 N8         -3.6604    2.8059   50.7071 N.am    1  ZINC000787750060   -0.7300
      9 C9         -4.7845    3.4932   51.3475 C.3     1  ZINC000787750060    0.2100
     10 C10        -5.8367    2.4850   51.7316 C.2     1  ZINC000787750060   -0.2800
     11 C11        -6.0987    1.3448   51.0923 C.2     1  ZINC000787750060    0.0900
     12 N12        -7.0717    0.6271   51.6249 N.2     1  ZINC000787750060   -0.5200
     13 C13        -7.6432    1.1093   52.6845 C.2     1  ZINC000787750060    0.2300
     14 N14        -8.6769    0.4983   53.3768 N.3     1  ZINC000787750060   -0.4500
     15 C15        -9.3583   -0.4967   52.5361 C.3     1  ZINC000787750060    0.0200
     16 C16       -10.4509   -1.1876   53.3563 C.3     1  ZINC000787750060    0.0600
     17 O17       -11.3523   -0.2015   53.8666 O.3     1  ZINC000787750060   -0.3800
     18 C18       -10.7223    0.7831   54.6904 C.3     1  ZINC000787750060    0.0600
     19 C19        -9.6324    1.4940   53.8837 C.3     1  ZINC000787750060    0.0300
     20 S20        -6.9297    2.6042   53.1081 S.3     1  ZINC000787750060    0.1700
     21 C21        -0.5253    2.4986   50.0143 C.ar    1  ZINC000787750060    0.1700
     22 O22        -0.4465    2.8402   51.3248 O.3     1  ZINC000787750060   -0.4700
     23 C23         0.5315    1.8435   49.4006 C.ar    1  ZINC000787750060   -0.1200
     24 C24         1.7729    1.5144   50.1891 C.3     1  ZINC000787750060   -0.1200
     25 H25         1.4762   -0.2841   47.5004 H       1  ZINC000787750060    0.0800
     26 H26         1.6393    1.0617   46.3470 H       1  ZINC000787750060    0.0700
     27 H27         2.5386    1.0919   47.8829 H       1  ZINC000787750060    0.0800
     28 H28        -0.7393    1.5232   46.2890 H       1  ZINC000787750060    0.1300
     29 H29        -2.6307    2.6759   47.3513 H       1  ZINC000787750060    0.1300
     30 H30        -3.5277    1.8558   50.8502 H       1  ZINC000787750060    0.4000
     31 H31        -4.4332    4.0100   52.2407 H       1  ZINC000787750060    0.0900
     32 H32        -5.2111    4.2170   50.6532 H       1  ZINC000787750060    0.0800
     33 H33        -5.5591    1.0329   50.2102 H       1  ZINC000787750060    0.1800
     34 H34        -9.8079    0.0000   51.6763 H       1  ZINC000787750060    0.0600
     35 H35        -8.6371   -1.2383   52.1928 H       1  ZINC000787750060    0.1000
     36 H36       -10.9965   -1.8855   52.7211 H       1  ZINC000787750060    0.1100
     37 H37        -9.9959   -1.7289   54.1858 H       1  ZINC000787750060    0.0700
     38 H38       -11.4640    1.5106   55.0201 H       1  ZINC000787750060    0.1100
     39 H39       -10.2751    0.2992   55.5588 H       1  ZINC000787750060    0.0600
     40 H40        -9.1112    2.2056   54.5242 H       1  ZINC000787750060    0.1000
     41 H41       -10.0864    2.0226   53.0454 H       1  ZINC000787750060    0.0700
     42 H42         0.3797    2.5747   51.7515 H       1  ZINC000787750060    0.4000
     43 H43         1.6642    0.5295   50.6435 H       1  ZINC000787750060    0.0700
     44 H44         2.6364    1.5144   49.5241 H       1  ZINC000787750060    0.0700
     45 H45         1.9157    2.2611   50.9702 H       1  ZINC000787750060    0.0800
@<TRIPOS>BOND
     1     1     2    1
     2     1    25    1
     3     1    26    1
     4     1    27    1
     5     2    23   ar
     6     2     3   ar
     7     3     4   ar
     8     3    28    1
     9     4     5   ar
    10     4    29    1
    11     5     6    1
    12     5    21   ar
    13     6     7    2
    14     6     8   am
    15     8     9    1
    16     8    30    1
    17     9    10    1
    18     9    31    1
    19     9    32    1
    20    10    20    1
    21    10    11    2
    22    11    12    1
    23    11    33    1
    24    12    13    2
    25    13    14    1
    26    13    20    1
    27    14    19    1
    28    14    15    1
    29    15    16    1
    30    15    34    1
    31    15    35    1
    32    16    17    1
    33    16    36    1
    34    16    37    1
    35    17    18    1
    36    18    19    1
    37    18    38    1
    38    18    39    1
    39    19    40    1
    40    19    41    1
    41    21    22    1
    42    21    23   ar
    43    22    42    1
    44    23    24    1
    45    24    43    1
    46    24    44    1
    47    24    45    1
@<TRIPOS>SUBSTRUCTURE
     1 ZINC000787750060        1 TEMP              0 ****  ****    0 ROOT


##########                                Name:    ZINC000459459628
##########                DOCK_Rotatable_Bonds:                   8
##########                         Heavy_Atoms:                  27
##########                    Molecular_Weight:             377.366
##########                DOCK_Rotatable_Bonds:                   8
##########                       Formal_Charge:         -0.00999984
##########                     HBond_Acceptors:                   8
##########                        HBond_Donors:                   1
##########                         Heavy_Atoms:                  27
##########                          Grid_Score:          -27.916704
##########                     Grid_vdw_energy:          -25.850960
##########                      Grid_es_energy:           -2.065744
##########           Internal_energy_repulsive:           14.674009

@<TRIPOS>MOLECULE
ZINC000459459628
 45 46 1 0 0
SMALL
USER_CHARGES


@<TRIPOS>ATOM
      1 C1          1.3481    3.0309   51.1745 C.3     1  ZINC000459459628   -0.1600
      2 C2          0.1185    3.9017   51.4400 C.3     1  ZINC000459459628    0.1600
      3 H3         -0.7246    3.2667   51.7122 H       1  ZINC000459459628    0.1100
      4 C4         -0.2270    4.6947   50.1779 C.3     1  ZINC000459459628   -0.0900
      5 C5         -0.7250    3.7520   49.1129 C.ar    1  ZINC000459459628   -0.0500
      6 C6         -1.9601    3.1464   49.2489 C.ar    1  ZINC000459459628   -0.1200
      7 C7         -2.4182    2.2811   48.2726 C.ar    1  ZINC000459459628   -0.0900
      8 C8         -1.6418    2.0209   47.1596 C.ar    1  ZINC000459459628   -0.1600
      9 C9         -0.4046    2.6275   47.0220 C.ar    1  ZINC000459459628    0.1000
     10 F10         0.3555    2.3738   45.9343 F       1  ZINC000459459628   -0.1400
     11 C11         0.0509    3.4977   47.9977 C.ar    1  ZINC000459459628   -0.1500
     12 N12         0.4049    4.8298   52.5368 N.am    1  ZINC000459459628   -0.6200
     13 C13         1.3283    5.9478   52.3280 C.3     1  ZINC000459459628    0.0700
     14 C14        -0.1811    4.6550   53.7378 C.2     1  ZINC000459459628    0.7100
     15 O15         0.0577    5.4243   54.6485 O.2     1  ZINC000459459628   -0.5700
     16 N16        -1.0318    3.6273   53.9292 N.am    1  ZINC000459459628   -0.6800
     17 C17        -1.6413    3.4454   55.1785 C.ar    1  ZINC000459459628    0.1500
     18 C18        -2.8921    3.9819   55.4226 C.ar    1  ZINC000459459628   -0.0400
     19 C19        -3.4964    3.7978   56.6692 C.ar    1  ZINC000459459628   -0.0300
     20 C20        -4.7917    4.3509   56.9273 C.1     1  ZINC000459459628    0.2600
     21 N21        -5.8194    4.7897   57.1321 N.1     1  ZINC000459459628   -0.4100
     22 C22        -2.8341    3.0727   57.6629 C.ar    1  ZINC000459459628   -0.0500
     23 C23        -1.5869    2.5407   57.4134 C.ar    1  ZINC000459459628   -0.1700
     24 C24        -0.9884    2.7178   56.1743 C.ar    1  ZINC000459459628    0.1100
     25 O25         0.2404    2.1914   55.9338 O.3     1  ZINC000459459628   -0.3200
     26 C26         1.1638    2.1744   57.0242 C.3     1  ZINC000459459628    0.4100
     27 F27         2.4196    1.7627   56.5656 F       1  ZINC000459459628   -0.1900
     28 F28         1.2646    3.4588   57.5699 F       1  ZINC000459459628   -0.1900
     29 H29         2.1912    3.6659   50.9023 H       1  ZINC000459459628    0.0600
     30 H30         1.5942    2.4660   52.0736 H       1  ZINC000459459628    0.0600
     31 H31         1.1350    2.3404   50.3585 H       1  ZINC000459459628    0.0700
     32 H32        -1.0028    5.4248   50.4085 H       1  ZINC000459459628    0.0800
     33 H33         0.6629    5.2114   49.8185 H       1  ZINC000459459628    0.0900
     34 H34        -2.5674    3.3489   50.1187 H       1  ZINC000459459628    0.1300
     35 H35        -3.3832    1.8083   48.3802 H       1  ZINC000459459628    0.1300
     36 H36        -1.9997    1.3445   46.3975 H       1  ZINC000459459628    0.1300
     37 H37         1.0155    3.9715   47.8912 H       1  ZINC000459459628    0.1300
     38 H38         0.7722    6.8181   51.9794 H       1  ZINC000459459628    0.0600
     39 H39         1.8269    6.1875   53.2671 H       1  ZINC000459459628    0.0700
     40 H40         2.0727    5.6697   51.5820 H       1  ZINC000459459628    0.0800
     41 H41        -1.2223    3.0135   53.2026 H       1  ZINC000459459628    0.4100
     42 H42        -3.4006    4.5422   54.6519 H       1  ZINC000459459628    0.1600
     43 H43        -3.2992    2.9292   58.6270 H       1  ZINC000459459628    0.1400
     44 H44        -1.0763    1.9810   58.1831 H       1  ZINC000459459628    0.1500
     45 H45         0.8109    1.4818   57.7884 H       1  ZINC000459459628    0.1900
@<TRIPOS>BOND
     1     1     2    1
     2     1    29    1
     3     1    30    1
     4     1    31    1
     5     2     3    1
     6     2     4    1
     7     2    12    1
     8     4     5    1
     9     4    32    1
    10     4    33    1
    11     5    11   ar
    12     5     6   ar
    13     6     7   ar
    14     6    34    1
    15     7     8   ar
    16     7    35    1
    17     8     9   ar
    18     8    36    1
    19     9    10    1
    20     9    11   ar
    21    11    37    1
    22    12    13    1
    23    12    14   am
    24    13    38    1
    25    13    39    1
    26    13    40    1
    27    14    15    2
    28    14    16   am
    29    16    17    1
    30    16    41    1
    31    17    24   ar
    32    17    18   ar
    33    18    19   ar
    34    18    42    1
    35    19    20    1
    36    19    22   ar
    37    20    21    3
    38    22    23   ar
    39    22    43    1
    40    23    24   ar
    41    23    44    1
    42    24    25    1
    43    25    26    1
    44    26    27    1
    45    26    28    1
    46    26    45    1
@<TRIPOS>SUBSTRUCTURE
     1 ZINC000459459628        1 TEMP              0 ****  ****    0 ROOT


##########                                Name:    ZINC000328606936
##########                DOCK_Rotatable_Bonds:                   6
##########                         Heavy_Atoms:                  23
##########                    Molecular_Weight:             338.428
##########                DOCK_Rotatable_Bonds:                   6
##########                       Formal_Charge:           0.0100001
##########                     HBond_Acceptors:                   7
##########                        HBond_Donors:                   2
##########                         Heavy_Atoms:                  23
##########                          Grid_Score:          -27.878048
##########                     Grid_vdw_energy:          -24.615816
##########                      Grid_es_energy:           -3.262231
##########           Internal_energy_repulsive:            7.899899

@<TRIPOS>MOLECULE
ZINC000328606936
 45 47 1 0 0
SMALL
USER_CHARGES


@<TRIPOS>ATOM
      1 C1          0.5361    1.9672   56.4078 C.3     1  <0>        -0.0500
      2 N2         -0.3629    2.8046   57.2130 N.4     1  <0>        -0.3500
      3 H3          0.0719    3.6993   57.3819 H       1  <0>         0.4200
      4 C4         -0.6320    2.1412   58.4958 C.3     1  <0>        -0.0900
      5 C5          0.4690    2.4686   59.4713 C.2     1  <0>         0.4900
      6 O6          1.5459    2.8689   59.0632 O.co2   1  <0>        -0.6700
      7 O7          0.2828    2.3333   60.6686 O.co2   1  <0>        -0.6400
      8 C8         -1.6261    3.0028   56.4898 C.3     1  <0>         0.0100
      9 H9         -2.1014    2.0427   56.2886 H       1  <0>         0.1600
     10 C10        -1.3755    3.7646   55.1707 C.3     1  <0>         0.1000
     11 N11        -2.5479    4.6587   55.0266 N.am    1  <0>        -0.6200
     12 C12        -3.2231    4.9617   53.9003 C.2     1  <0>         0.6200
     13 O13        -4.1742    5.7198   53.9462 O.2     1  <0>        -0.5100
     14 C14        -2.8122    4.3782   52.6200 C.2     1  <0>        -0.2800
     15 C15        -1.5498    4.3995   52.1114 C.2     1  <0>        -0.0300
     16 C16        -1.4254    3.7774   50.8827 C.2     1  <0>        -0.1200
     17 C17        -2.5823    3.2606   50.4101 C.2     1  <0>        -0.1900
     18 C18        -2.7153    2.5288   49.0878 C.3     1  <0>        -0.0500
     19 C19        -1.4848    2.8346   48.2300 C.3     1  <0>        -0.1200
     20 C20        -0.2233    2.5910   49.0635 C.3     1  <0>        -0.1200
     21 C21        -0.1052    3.6827   50.1287 C.3     1  <0>        -0.0600
     22 S22        -3.8682    3.5331   51.5000 S.3     1  <0>         0.2000
     23 C23        -2.8098    5.1441   56.4016 C.3     1  <0>         0.0600
     24 C24        -2.5729    3.9100   57.3028 C.3     1  <0>         0.0800
     25 H25        -2.1002    4.2091   58.2383 H       1  <0>         0.1000
     26 O26        -3.8083    3.2406   57.5633 O.3     1  <0>        -0.5400
     27 H27         0.0664    1.0007   56.2255 H       1  <0>         0.1100
     28 H28         0.7358    2.4595   55.4560 H       1  <0>         0.1100
     29 H29         1.4734    1.8201   56.9445 H       1  <0>         0.1600
     30 H30        -1.5850    2.4908   58.8928 H       1  <0>         0.1200
     31 H31        -0.6749    1.0625   58.3451 H       1  <0>         0.1300
     32 H32        -0.4578    4.3490   55.2377 H       1  <0>         0.1000
     33 H33        -1.3234    3.0684   54.3337 H       1  <0>         0.1200
     34 H34        -0.7183    4.8621   52.6225 H       1  <0>         0.1500
     35 H35        -2.7775    1.4557   49.2685 H       1  <0>         0.0900
     36 H36        -3.6138    2.8673   48.5717 H       1  <0>         0.0800
     37 H37        -1.4770    2.1815   47.3573 H       1  <0>         0.0700
     38 H38        -1.5139    3.8755   47.9082 H       1  <0>         0.0700
     39 H39        -0.2886    1.6160   49.5465 H       1  <0>         0.0700
     40 H40         0.6525    2.6190   48.4152 H       1  <0>         0.0700
     41 H41         0.1126    4.6377   49.6505 H       1  <0>         0.0800
     42 H42         0.6947    3.4294   50.8244 H       1  <0>         0.0800
     43 H43        -2.1162    5.9438   56.6609 H       1  <0>         0.1000
     44 H44        -3.8399    5.4885   56.4934 H       1  <0>         0.1000
     45 H45        -4.4322    3.7577   58.0911 H       1  <0>         0.4000
@<TRIPOS>BOND
     1     1     2    1
     2     1    27    1
     3     1    28    1
     4     1    29    1
     5     2     3    1
     6     2     4    1
     7     2     8    1
     8     4     5    1
     9     4    30    1
    10     4    31    1
    11     5     6   ar
    12     5     7   ar
    13     8     9    1
    14     8    24    1
    15     8    10    1
    16    10    11    1
    17    10    32    1
    18    10    33    1
    19    11    12   am
    20    11    23    1
    21    12    13    2
    22    12    14    1
    23    14    22    1
    24    14    15    2
    25    15    16    1
    26    15    34    1
    27    16    21    1
    28    16    17    2
    29    17    18    1
    30    17    22    1
    31    18    19    1
    32    18    35    1
    33    18    36    1
    34    19    20    1
    35    19    37    1
    36    19    38    1
    37    20    21    1
    38    20    39    1
    39    20    40    1
    40    21    41    1
    41    21    42    1
    42    23    24    1
    43    23    43    1
    44    23    44    1
    45    24    25    1
    46    24    26    1
    47    26    45    1
@<TRIPOS>SUBSTRUCTURE
     1 <0>         1 TEMP              0 ****  ****    0 ROOT


##########                                Name:    ZINC000821214121
##########                DOCK_Rotatable_Bonds:                  10
##########                         Heavy_Atoms:                  23
##########                    Molecular_Weight:             338.434
##########                DOCK_Rotatable_Bonds:                  10
##########                       Formal_Charge:          0.00999954
##########                     HBond_Acceptors:                   9
##########                        HBond_Donors:                   3
##########                         Heavy_Atoms:                  23
##########                          Grid_Score:          -27.868923
##########                     Grid_vdw_energy:          -27.237169
##########                      Grid_es_energy:           -0.631753
##########           Internal_energy_repulsive:           10.806093

@<TRIPOS>MOLECULE
ZINC000821214121
 45 46 1 0 0
SMALL
USER_CHARGES


@<TRIPOS>ATOM
      1 C1        -17.5555   -0.0792   57.9499 C.3     1  ZINC000821214121   -0.1500
      2 C2        -16.7202   -1.3013   57.5633 C.3     1  ZINC000821214121    0.0500
      3 N3        -16.1984   -1.9418   58.7780 N.3     1  ZINC000821214121   -0.5200
      4 C4        -17.2336   -2.7543   59.4308 C.3     1  ZINC000821214121    0.0600
      5 C5        -17.4465   -2.2555   60.8615 C.3     1  ZINC000821214121   -0.1200
      6 C6        -16.1410   -2.3891   61.6479 C.3     1  ZINC000821214121    0.0800
      7 O7        -16.3315   -1.8948   62.9750 O.3     1  ZINC000821214121   -0.5700
      8 C8        -15.0078   -2.7482   58.4780 C.3     1  ZINC000821214121    0.0400
      9 C9        -13.7757   -2.0196   58.9491 C.2     1  ZINC000821214121    0.5000
     10 O10       -13.4316   -0.9931   58.4016 O.2     1  ZINC000821214121   -0.4800
     11 N11       -13.0561   -2.5081   59.9785 N.am    1  ZINC000821214121   -0.6300
     12 C12       -11.9175   -1.8333   60.4152 C.2     1  ZINC000821214121    0.0800
     13 C13       -10.6631   -1.9928   59.9061 C.2     1  ZINC000821214121   -0.1000
     14 C14       -10.3549   -2.9282   58.7980 C.2     1  ZINC000821214121    0.2900
     15 N15       -10.1683   -2.6056   57.5310 N.2     1  ZINC000821214121   -0.3300
     16 N16        -9.9056   -3.8120   56.8614 N.pl3   1  ZINC000821214121   -0.2900
     17 N17        -9.9497   -4.7528   57.7416 N.2     1  ZINC000821214121    0.0200
     18 N18       -10.2086   -4.2539   58.8979 N.2     1  ZINC000821214121   -0.2900
     19 C19        -9.6953   -1.1980   60.5202 C.2     1  ZINC000821214121   -0.0500
     20 C20        -8.2465   -1.2228   60.1062 C.3     1  ZINC000821214121   -0.1000
     21 C21       -10.1449   -0.4170   61.4966 C.2     1  ZINC000821214121   -0.2400
     22 C22        -9.2937    0.5274   62.3057 C.3     1  ZINC000821214121   -0.0800
     23 S23       -11.8762   -0.6378   61.7042 S.3     1  ZINC000821214121    0.2600
     24 H24       -18.3285   -0.3768   58.6585 H       1  ZINC000821214121    0.0700
     25 H25       -16.9114    0.6710   58.4087 H       1  ZINC000821214121    0.0500
     26 H26       -18.0220    0.3390   57.0578 H       1  ZINC000821214121    0.0600
     27 H27       -17.3436   -2.0098   57.0180 H       1  ZINC000821214121    0.0900
     28 H28       -15.8887   -0.9881   56.9318 H       1  ZINC000821214121    0.0400
     29 H29       -18.1668   -2.6698   58.8739 H       1  ZINC000821214121    0.0400
     30 H30       -16.9168   -3.7970   59.4531 H       1  ZINC000821214121    0.0800
     31 H31       -17.7522   -1.2094   60.8399 H       1  ZINC000821214121    0.0800
     32 H32       -18.2227   -2.8509   61.3422 H       1  ZINC000821214121    0.0700
     33 H33       -15.8477   -3.4380   61.6894 H       1  ZINC000821214121    0.0400
     34 H34       -15.3588   -1.8124   61.1541 H       1  ZINC000821214121    0.0500
     35 H35       -16.5815   -0.9615   63.0151 H       1  ZINC000821214121    0.3800
     36 H36       -15.0804   -3.7078   58.9899 H       1  ZINC000821214121    0.0700
     37 H37       -14.9428   -2.9142   57.4026 H       1  ZINC000821214121    0.1200
     38 H38       -13.3305   -3.3295   60.4156 H       1  ZINC000821214121    0.4200
     39 H39        -9.7251   -3.9174   55.9142 H       1  ZINC000821214121    0.4700
     40 H40        -8.0790   -0.4811   59.3252 H       1  ZINC000821214121    0.0700
     41 H41        -7.6187   -0.9922   60.9669 H       1  ZINC000821214121    0.0700
     42 H42        -7.9938   -2.2130   59.7272 H       1  ZINC000821214121    0.0900
     43 H43        -9.2700    1.5025   61.8194 H       1  ZINC000821214121    0.0700
     44 H44        -9.7150    0.6303   63.3057 H       1  ZINC000821214121    0.0700
     45 H45        -8.2803    0.1324   62.3773 H       1  ZINC000821214121    0.0800
@<TRIPOS>BOND
     1     1     2    1
     2     1    24    1
     3     1    25    1
     4     1    26    1
     5     2     3    1
     6     2    27    1
     7     2    28    1
     8     3     4    1
     9     3     8    1
    10     4     5    1
    11     4    29    1
    12     4    30    1
    13     5     6    1
    14     5    31    1
    15     5    32    1
    16     6     7    1
    17     6    33    1
    18     6    34    1
    19     7    35    1
    20     8     9    1
    21     8    36    1
    22     8    37    1
    23     9    10    2
    24     9    11   am
    25    11    12    1
    26    11    38    1
    27    12    23    1
    28    12    13    2
    29    13    14    1
    30    13    19    1
    31    14    18    1
    32    14    15    2
    33    15    16    1
    34    16    17    1
    35    16    39    1
    36    17    18    2
    37    19    20    1
    38    19    21    2
    39    20    40    1
    40    20    41    1
    41    20    42    1
    42    21    22    1
    43    21    23    1
    44    22    43    1
    45    22    44    1
    46    22    45    1
@<TRIPOS>SUBSTRUCTURE
     1 ZINC000821214121        1 TEMP              0 ****  ****    0 ROOT


##########                                Name:    ZINC001067560454
##########                DOCK_Rotatable_Bonds:                   4
##########                         Heavy_Atoms:                  25
##########                    Molecular_Weight:             342.444
##########                DOCK_Rotatable_Bonds:                   4
##########                       Formal_Charge:          0.00999971
##########                     HBond_Acceptors:                   7
##########                        HBond_Donors:                   1
##########                         Heavy_Atoms:                  25
##########                          Grid_Score:          -27.868401
##########                     Grid_vdw_energy:          -27.524771
##########                      Grid_es_energy:           -0.343630
##########           Internal_energy_repulsive:           13.572989

@<TRIPOS>MOLECULE
ZINC001067560454
 51 54 1 0 0
SMALL
USER_CHARGES


@<TRIPOS>ATOM
      1 C1          0.8513    3.3295   50.2506 C.3     1  ZINC001067560454   -0.1500
      2 C2         -0.6279    3.1969   50.6186 C.3     1  ZINC001067560454    0.1000
      3 H3         -0.8856    2.1419   50.7125 H       1  ZINC001067560454    0.0600
      4 C4         -0.8878    3.9059   51.9497 C.3     1  ZINC001067560454   -0.1200
      5 C5         -2.3727    3.7878   52.3039 C.3     1  ZINC001067560454    0.1400
      6 H6         -2.6344    2.7373   52.4315 H       1  ZINC001067560454    0.0900
      7 N7         -2.6382    4.5131   53.5488 N.am    1  ZINC001067560454   -0.7200
      8 C8         -2.2964    3.9672   54.7328 C.2     1  ZINC001067560454    0.5400
      9 O9         -1.7703    2.8751   54.7677 O.2     1  ZINC001067560454   -0.5300
     10 C10        -2.5680    4.7141   56.0133 C.3     1  ZINC001067560454   -0.1100
     11 C11        -2.8201    6.2063   55.7886 C.3     1  ZINC001067560454   -0.1300
     12 C12        -3.6187    4.0380   56.9098 C.3     1  ZINC001067560454   -0.1200
     13 C13        -2.4573    3.2581   57.5485 C.3     1  ZINC001067560454   -0.1400
     14 C14        -1.5463    4.4224   57.1250 C.3     1  ZINC001067560454   -0.1200
     15 C15        -3.2089    4.3896   51.1713 C.3     1  ZINC001067560454   -0.1200
     16 C16        -2.8819    3.6667   49.8627 C.3     1  ZINC001067560454    0.0600
     17 N17        -1.4504    3.8097   49.5677 N.3     1  ZINC001067560454   -0.4900
     18 C18        -1.1444    3.2797   48.3265 C.ar    1  ZINC001067560454    0.4400
     19 C19        -0.5337    4.0700   47.3381 C.ar    1  ZINC001067560454   -0.0800
     20 N20        -0.1190    5.3578   47.2697 N.2     1  ZINC001067560454   -0.4700
     21 C21         0.3918    5.5865   46.0947 C.2     1  ZINC001067560454    0.2700
     22 N22         0.3360    4.4563   45.3346 N.pl3   1  ZINC001067560454   -0.4800
     23 C23         0.8118    4.3142   43.9563 C.3     1  ZINC001067560454    0.0800
     24 C24        -0.2467    3.4760   46.0973 C.ar    1  ZINC001067560454    0.2800
     25 N25        -0.5600    2.1989   45.9048 N.ar    1  ZINC001067560454   -0.5200
     26 C26        -1.1313    1.4968   46.8606 C.ar    1  ZINC001067560454    0.3300
     27 N27        -1.4162    2.0099   48.0434 N.ar    1  ZINC001067560454   -0.5100
     28 H28         1.1091    4.3844   50.1565 H       1  ZINC001067560454    0.0700
     29 H29         1.4618    2.8743   51.0303 H       1  ZINC001067560454    0.0700
     30 H30         1.0365    2.8243   49.3027 H       1  ZINC001067560454    0.0500
     31 H31        -0.2887    3.4407   52.7327 H       1  ZINC001067560454    0.0800
     32 H32        -0.6175    4.9580   51.8605 H       1  ZINC001067560454    0.0800
     33 H33        -3.0601    5.3860   53.5210 H       1  ZINC001067560454    0.4000
     34 H34        -3.5710    6.3346   55.0092 H       1  ZINC001067560454    0.0600
     35 H35        -3.1764    6.6580   56.7145 H       1  ZINC001067560454    0.0700
     36 H36        -1.8923    6.6895   55.4823 H       1  ZINC001067560454    0.0600
     37 H37        -4.1135    4.7247   57.5966 H       1  ZINC001067560454    0.0900
     38 H38        -4.3192    3.4075   56.3622 H       1  ZINC001067560454    0.0700
     39 H39        -2.5487    3.1458   58.6288 H       1  ZINC001067560454    0.0700
     40 H40        -2.2307    2.3199   57.0421 H       1  ZINC001067560454    0.0800
     41 H41        -0.5737    4.1022   56.7512 H       1  ZINC001067560454    0.0800
     42 H42        -1.4745    5.2142   57.8707 H       1  ZINC001067560454    0.0900
     43 H43        -4.2683    4.2701   51.3980 H       1  ZINC001067560454    0.0800
     44 H44        -2.9751    5.4494   51.0697 H       1  ZINC001067560454    0.0800
     45 H45        -3.1288    2.6095   49.9603 H       1  ZINC001067560454    0.0700
     46 H46        -3.4651    4.1023   49.0514 H       1  ZINC001067560454    0.0800
     47 H47         0.7992    6.5324   45.7696 H       1  ZINC001067560454    0.2300
     48 H48         1.8554    3.9997   43.9627 H       1  ZINC001067560454    0.0800
     49 H49         0.2101    3.5666   43.4395 H       1  ZINC001067560454    0.0900
     50 H50         0.7238    5.2708   43.4411 H       1  ZINC001067560454    0.0900
     51 H51        -1.3730    0.4613   46.6714 H       1  ZINC001067560454    0.2100
@<TRIPOS>BOND
     1     1     2    1
     2     1    28    1
     3     1    29    1
     4     1    30    1
     5     2     3    1
     6     2    17    1
     7     2     4    1
     8     4     5    1
     9     4    31    1
    10     4    32    1
    11     5     6    1
    12     5     7    1
    13     5    15    1
    14     7     8   am
    15     7    33    1
    16     8     9    2
    17     8    10    1
    18    10    14    1
    19    10    11    1
    20    10    12    1
    21    11    34    1
    22    11    35    1
    23    11    36    1
    24    12    13    1
    25    12    37    1
    26    12    38    1
    27    13    14    1
    28    13    39    1
    29    13    40    1
    30    14    41    1
    31    14    42    1
    32    15    16    1
    33    15    43    1
    34    15    44    1
    35    16    17    1
    36    16    45    1
    37    16    46    1
    38    17    18    1
    39    18    27   ar
    40    18    19   ar
    41    19    24   ar
    42    19    20    1
    43    20    21    2
    44    21    22    1
    45    21    47    1
    46    22    23    1
    47    22    24    1
    48    23    48    1
    49    23    49    1
    50    23    50    1
    51    24    25   ar
    52    25    26   ar
    53    26    27   ar
    54    26    51    1
@<TRIPOS>SUBSTRUCTURE
     1 ZINC001067560454        1 TEMP              0 ****  ****    0 ROOT


##########                                Name:    ZINC000863216249
##########                DOCK_Rotatable_Bonds:                   5
##########                         Heavy_Atoms:                  23
##########                    Molecular_Weight:             396.351
##########                DOCK_Rotatable_Bonds:                   5
##########                       Formal_Charge:         -0.00999944
##########                     HBond_Acceptors:                   5
##########                        HBond_Donors:                   1
##########                         Heavy_Atoms:                  23
##########                          Grid_Score:          -27.842928
##########                     Grid_vdw_energy:          -27.160721
##########                      Grid_es_energy:           -0.682206
##########           Internal_energy_repulsive:           20.282290

@<TRIPOS>MOLECULE
ZINC000863216249
 45 48 1 0 0
SMALL
USER_CHARGES


@<TRIPOS>ATOM
      1 S1          2.4889    3.4261   52.4914 S.2     1  ZINC000863216249   -0.5900
      2 C2          1.1503    3.4934   53.5565 C.2     1  ZINC000863216249    0.5600
      3 N3         -0.0491    3.9117   53.1060 N.am    1  ZINC000863216249   -0.6800
      4 C4         -0.2059    4.3146   51.7063 C.3     1  ZINC000863216249    0.1200
      5 C5         -1.6518    4.7496   51.4597 C.3     1  ZINC000863216249    0.0400
      6 N6         -2.4313    3.6041   50.9718 N.3     1  ZINC000863216249   -0.5300
      7 C7         -2.4685    3.5796   49.5023 C.3     1  ZINC000863216249    0.0000
      8 C8         -3.2380    2.3405   49.0371 C.3     1  ZINC000863216249    0.0600
      9 O9         -4.5476    2.3553   49.6117 O.3     1  ZINC000863216249   -0.3800
     10 C10        -4.5487    2.3787   51.0417 C.3     1  ZINC000863216249    0.0600
     11 C11        -3.7924    3.6181   51.5271 C.3     1  ZINC000863216249    0.0200
     12 N12         1.2946    3.1227   54.8444 N.am    1  ZINC000863216249   -0.5100
     13 C13         2.5455    2.6514   55.4491 C.3     1  ZINC000863216249    0.1200
     14 C14         2.1918    2.3618   56.9112 C.3     1  ZINC000863216249   -0.1100
     15 C15         2.8158    1.1952   57.6672 C.3     1  ZINC000863216249   -0.1500
     16 C16         3.1780    2.6355   58.0401 C.3     1  ZINC000863216249   -0.1500
     17 C17         0.7282    2.6968   57.0381 C.ar    1  ZINC000863216249   -0.0700
     18 C18        -0.1332    2.6337   58.1163 C.ar    1  ZINC000863216249   -0.0800
     19 C19        -1.4573    3.0037   57.9717 C.ar    1  ZINC000863216249   -0.1000
     20 C20        -1.9200    3.4386   56.7426 C.ar    1  ZINC000863216249   -0.0700
     21 Br21       -3.7306    3.9459   56.5425 Br      1  ZINC000863216249   -0.0400
     22 C22        -1.0639    3.5035   55.6627 C.ar    1  ZINC000863216249   -0.0900
     23 C23         0.2752    3.1366   55.8020 C.ar    1  ZINC000863216249    0.1400
     24 H24        -0.8084    3.9461   53.7087 H       1  ZINC000863216249    0.4000
     25 H25         0.4655    5.1455   51.4899 H       1  ZINC000863216249    0.0900
     26 H26         0.0363    3.4734   51.0568 H       1  ZINC000863216249    0.1000
     27 H27        -2.0854    5.1138   52.3911 H       1  ZINC000863216249    0.0900
     28 H28        -1.6699    5.5451   50.7149 H       1  ZINC000863216249    0.0400
     29 H29        -2.9674    4.4767   49.1359 H       1  ZINC000863216249    0.0500
     30 H30        -1.4510    3.5435   49.1130 H       1  ZINC000863216249    0.1000
     31 H31        -3.3173    2.3482   47.9501 H       1  ZINC000863216249    0.1000
     32 H32        -2.7100    1.4425   49.3578 H       1  ZINC000863216249    0.0600
     33 H33        -5.5760    2.4138   51.4043 H       1  ZINC000863216249    0.1000
     34 H34        -4.0588    1.4817   51.4206 H       1  ZINC000863216249    0.0600
     35 H35        -3.7415    3.6101   52.6158 H       1  ZINC000863216249    0.0900
     36 H36        -4.3126    4.5159   51.1931 H       1  ZINC000863216249    0.0500
     37 H37         2.8869    1.7421   54.9543 H       1  ZINC000863216249    0.0900
     38 H38         3.3103    3.4259   55.3904 H       1  ZINC000863216249    0.0900
     39 H39         2.1772    0.6421   58.3559 H       1  ZINC000863216249    0.1100
     40 H40         3.5706    0.6046   57.1479 H       1  ZINC000863216249    0.1100
     41 H41         4.1708    2.9923   57.7660 H       1  ZINC000863216249    0.1100
     42 H42         2.7774    3.0297   58.9741 H       1  ZINC000863216249    0.1100
     43 H43         0.2289    2.2937   59.0752 H       1  ZINC000863216249    0.1400
     44 H44        -2.1288    2.9532   58.8160 H       1  ZINC000863216249    0.1400
     45 H45        -1.4312    3.8435   54.7055 H       1  ZINC000863216249    0.1900
@<TRIPOS>BOND
     1     1     2    2
     2     2     3   am
     3     2    12   am
     4     3     4    1
     5     3    24    1
     6     4     5    1
     7     4    25    1
     8     4    26    1
     9     5     6    1
    10     5    27    1
    11     5    28    1
    12     6    11    1
    13     6     7    1
    14     7     8    1
    15     7    29    1
    16     7    30    1
    17     8     9    1
    18     8    31    1
    19     8    32    1
    20     9    10    1
    21    10    11    1
    22    10    33    1
    23    10    34    1
    24    11    35    1
    25    11    36    1
    26    12    23    1
    27    12    13    1
    28    13    14    1
    29    13    37    1
    30    13    38    1
    31    14    16    1
    32    14    15    1
    33    14    17    1
    34    15    16    1
    35    15    39    1
    36    15    40    1
    37    16    41    1
    38    16    42    1
    39    17    23   ar
    40    17    18   ar
    41    18    19   ar
    42    18    43    1
    43    19    20   ar
    44    19    44    1
    45    20    21    1
    46    20    22   ar
    47    22    23   ar
    48    22    45    1
@<TRIPOS>SUBSTRUCTURE
     1 ZINC000863216249        1 TEMP              0 ****  ****    0 ROOT


##########                                Name:    ZINC000817655807
##########                DOCK_Rotatable_Bonds:                   3
##########                         Heavy_Atoms:                  24
##########                    Molecular_Weight:             352.774
##########                DOCK_Rotatable_Bonds:                   3
##########                       Formal_Charge:         3.35276e-07
##########                     HBond_Acceptors:                   8
##########                        HBond_Donors:                   0
##########                         Heavy_Atoms:                  24
##########                          Grid_Score:          -27.842209
##########                     Grid_vdw_energy:          -28.308611
##########                      Grid_es_energy:            0.466401
##########           Internal_energy_repulsive:            3.678920

@<TRIPOS>MOLECULE
ZINC000817655807
 41 44 1 0 0
SMALL
USER_CHARGES


@<TRIPOS>ATOM
      1 C1        -14.9243   -2.8485   57.3490 C.3     1  ZINC000817655807    0.1100
      2 N2        -13.8810   -2.8112   56.3210 N.am    1  ZINC000817655807   -0.6400
      3 C3        -13.2920   -1.5910   55.7409 C.3     1  ZINC000817655807    0.1000
      4 C4        -12.2719   -2.1357   54.7370 C.3     1  ZINC000817655807    0.0500
      5 C5        -12.3451   -1.5463   53.3283 C.3     1  ZINC000817655807    0.1200
      6 N6        -11.3059   -0.6012   53.7878 N.am    1  ZINC000817655807   -0.6500
      7 C7        -10.9167    0.6312   53.4056 C.2     1  ZINC000817655807    0.5500
      8 O8        -11.4792    1.1867   52.4859 O.2     1  ZINC000817655807   -0.5100
      9 C9         -9.7826    1.3190   54.1211 C.3     1  ZINC000817655807   -0.0900
     10 C10        -8.5402    1.2559   53.2704 C.ar    1  ZINC000817655807   -0.0600
     11 C11        -8.1702    0.0637   52.6771 C.ar    1  ZINC000817655807   -0.0900
     12 C12        -7.0292    0.0017   51.8974 C.ar    1  ZINC000817655807   -0.0300
     13 Cl13       -6.5671   -1.4976   51.1541 Cl      1  ZINC000817655807   -0.0500
     14 C14        -6.2540    1.1369   51.7088 C.ar    1  ZINC000817655807    0.0600
     15 O15        -5.1295    1.0590   50.9455 O.3     1  ZINC000817655807   -0.2900
     16 C16        -4.5836    2.2966   50.4757 C.3     1  ZINC000817655807    0.0200
     17 C17        -4.5474    3.2829   51.6510 C.3     1  ZINC000817655807    0.0200
     18 O18        -5.8858    3.4627   52.1267 O.3     1  ZINC000817655807   -0.3000
     19 C19        -6.6289    2.3361   52.3027 C.ar    1  ZINC000817655807    0.0600
     20 C20        -7.7760    2.3919   53.0804 C.ar    1  ZINC000817655807   -0.0900
     21 C21       -10.8642   -1.5470   54.8340 C.3     1  ZINC000817655807    0.1100
     22 O22       -12.3745   -3.5748   54.8377 O.3     1  ZINC000817655807   -0.3000
     23 C23       -13.3013   -3.8821   55.7578 C.2     1  ZINC000817655807    0.6400
     24 O24       -13.5940   -5.0250   56.0487 O.2     1  ZINC000817655807   -0.5100
     25 H25       -15.1608   -3.8851   57.5891 H       1  ZINC000817655807    0.0900
     26 H26       -14.5695   -2.3398   58.2454 H       1  ZINC000817655807    0.0700
     27 H27       -15.8186   -2.3484   56.9773 H       1  ZINC000817655807    0.0700
     28 H28       -14.0541   -1.0003   55.2324 H       1  ZINC000817655807    0.1000
     29 H29       -12.7960   -0.9999   56.5107 H       1  ZINC000817655807    0.1000
     30 H30       -12.0064   -2.2277   52.5479 H       1  ZINC000817655807    0.1100
     31 H31       -13.2996   -1.0732   53.0981 H       1  ZINC000817655807    0.1000
     32 H32       -10.0461    2.3608   54.3027 H       1  ZINC000817655807    0.1100
     33 H33        -9.5974    0.8199   55.0723 H       1  ZINC000817655807    0.1100
     34 H34        -8.7725   -0.8208   52.8226 H       1  ZINC000817655807    0.1400
     35 H35        -3.5731    2.1339   50.1012 H       1  ZINC000817655807    0.1300
     36 H36        -5.2115    2.6966   49.6795 H       1  ZINC000817655807    0.0800
     37 H37        -3.9244    2.8803   52.4497 H       1  ZINC000817655807    0.0800
     38 H38        -4.1447    4.2389   51.3163 H       1  ZINC000817655807    0.1300
     39 H39        -8.0702    3.3233   53.5412 H       1  ZINC000817655807    0.1400
     40 H40       -10.6498   -1.0744   55.7926 H       1  ZINC000817655807    0.1000
     41 H41       -10.0785   -2.2285   54.5082 H       1  ZINC000817655807    0.1100
@<TRIPOS>BOND
     1     1     2    1
     2     1    25    1
     3     1    26    1
     4     1    27    1
     5     2    23   am
     6     2     3    1
     7     3     4    1
     8     3    28    1
     9     3    29    1
    10     4    21    1
    11     4     5    1
    12     4    22    1
    13     5     6    1
    14     5    30    1
    15     5    31    1
    16     6     7   am
    17     6    21    1
    18     7     8    2
    19     7     9    1
    20     9    10    1
    21     9    32    1
    22     9    33    1
    23    10    20   ar
    24    10    11   ar
    25    11    12   ar
    26    11    34    1
    27    12    13    1
    28    12    14   ar
    29    14    19   ar
    30    14    15    1
    31    15    16    1
    32    16    17    1
    33    16    35    1
    34    16    36    1
    35    17    18    1
    36    17    37    1
    37    17    38    1
    38    18    19    1
    39    19    20   ar
    40    20    39    1
    41    21    40    1
    42    21    41    1
    43    22    23    1
    44    23    24    2
@<TRIPOS>SUBSTRUCTURE
     1 ZINC000817655807        1 TEMP              0 ****  ****    0 ROOT


##########                                Name:    ZINC000876376999
##########                DOCK_Rotatable_Bonds:                   7
##########                         Heavy_Atoms:                  24
##########                    Molecular_Weight:             358.502
##########                DOCK_Rotatable_Bonds:                   7
##########                       Formal_Charge:          -0.0299994
##########                     HBond_Acceptors:                   7
##########                        HBond_Donors:                   2
##########                         Heavy_Atoms:                  24
##########                          Grid_Score:          -27.840879
##########                     Grid_vdw_energy:          -25.954800
##########                      Grid_es_energy:           -1.886080
##########           Internal_energy_repulsive:           33.602001

@<TRIPOS>MOLECULE
ZINC000876376999
 54 56 1 0 0
SMALL
USER_CHARGES


@<TRIPOS>ATOM
      1 C1        -19.0961   -6.4965   47.1038 C.3     1  ZINC000876376999   -0.1500
      2 C2        -18.2716   -6.8631   45.8682 C.3     1  ZINC000876376999   -0.1100
      3 C3        -16.9592   -6.0768   45.8791 C.3     1  ZINC000876376999   -0.0700
      4 C4        -16.1688   -6.4200   47.1434 C.3     1  ZINC000876376999    0.0900
      5 O5        -15.8831   -7.8200   47.1612 O.3     1  ZINC000876376999   -0.5600
      6 C6        -16.1333   -6.4440   44.6442 C.3     1  ZINC000876376999   -0.1100
      7 C7        -14.8060   -5.6827   44.6710 C.3     1  ZINC000876376999   -0.1400
      8 C8        -15.0849   -4.1767   44.6358 C.3     1  ZINC000876376999    0.1100
      9 N9        -15.9968   -3.8388   45.7371 N.am    1  ZINC000876376999   -0.6300
     10 C10       -15.6787   -2.8714   46.6199 C.2     1  ZINC000876376999    0.7100
     11 O11       -16.4419   -2.6011   47.5269 O.2     1  ZINC000876376999   -0.5800
     12 N12       -14.5144   -2.2036   46.4972 N.am    1  ZINC000876376999   -0.7500
     13 C13       -14.1685   -1.1521   47.4567 C.3     1  ZINC000876376999    0.1400
     14 C14       -14.7391    0.1874   46.9750 C.3     1  ZINC000876376999   -0.1100
     15 C15       -15.6376    0.7824   48.0248 C.3     1  ZINC000876376999   -0.1100
     16 C16       -15.0115    1.8694   48.9064 C.3     1  ZINC000876376999   -0.5200
     17 H17       -15.6919    2.2572   49.6774 H       1  ZINC000876376999    0.1500
     18 C18       -13.6983    1.2980   49.4884 C.3     1  ZINC000876376999   -0.1200
     19 C19       -12.5508    1.4288   48.4929 C.3     1  ZINC000876376999   -0.1200
     20 C20       -13.0224    2.0962   47.1805 C.3     1  ZINC000876376999   -0.5300
     21 H21       -12.2245    2.6525   46.6692 H       1  ZINC000876376999    0.1500
     22 C22       -13.6653    1.0074   46.3134 C.3     1  ZINC000876376999   -0.1000
     23 S23       -14.4042    3.1701   47.7532 S.o2    1  ZINC000876376999    2.3700
     24 O24       -15.3386    3.3704   46.7025 O.2     1  ZINC000876376999   -0.9300
     25 O25       -13.8940    4.2749   48.4865 O.2     1  ZINC000876376999   -0.9300
     26 C26       -17.2625   -4.5753   45.8576 C.3     1  ZINC000876376999    0.1400
     27 H27       -18.5689   -6.8197   48.0014 H       1  ZINC000876376999    0.0500
     28 H28       -19.2410   -5.4167   47.1366 H       1  ZINC000876376999    0.0600
     29 H29       -20.0657   -6.9919   47.0536 H       1  ZINC000876376999    0.0500
     30 H30       -18.0552   -7.9314   45.8797 H       1  ZINC000876376999    0.0600
     31 H31       -18.8355   -6.6164   44.9688 H       1  ZINC000876376999    0.0700
     32 H32       -15.2346   -5.8584   47.1515 H       1  ZINC000876376999    0.0500
     33 H33       -16.7577   -6.1580   48.0224 H       1  ZINC000876376999    0.0400
     34 H34       -15.3832   -8.1097   47.9366 H       1  ZINC000876376999    0.3800
     35 H35       -15.9371   -7.5162   44.6443 H       1  ZINC000876376999    0.0700
     36 H36       -16.6873   -6.1766   43.7442 H       1  ZINC000876376999    0.0700
     37 H37       -14.2627   -5.9308   45.5828 H       1  ZINC000876376999    0.0700
     38 H38       -14.2085   -5.9623   43.8033 H       1  ZINC000876376999    0.0800
     39 H39       -14.1500   -3.6291   44.7544 H       1  ZINC000876376999    0.0700
     40 H40       -15.5473   -3.9130   43.6847 H       1  ZINC000876376999    0.0700
     41 H41       -13.9056   -2.4192   45.7734 H       1  ZINC000876376999    0.3900
     42 H42       -14.5899   -1.3969   48.4317 H       1  ZINC000876376999    0.0800
     43 H43       -13.0841   -1.0768   47.5381 H       1  ZINC000876376999    0.0700
     44 H44       -15.4329   -0.1054   46.1370 H       1  ZINC000876376999    0.0900
     45 H45       -16.5321    1.2027   47.5326 H       1  ZINC000876376999    0.0900
     46 H46       -16.0108   -0.0262   48.6771 H       1  ZINC000876376999    0.0900
     47 H47       -13.4407    1.8606   50.3912 H       1  ZINC000876376999    0.0800
     48 H48       -13.8351    0.2558   49.7617 H       1  ZINC000876376999    0.0900
     49 H49       -11.7704    2.0509   48.9420 H       1  ZINC000876376999    0.0800
     50 H50       -12.1297    0.4502   48.2818 H       1  ZINC000876376999    0.0900
     51 H51       -12.8703    0.3320   45.9521 H       1  ZINC000876376999    0.0900
     52 H52       -14.0848    1.4820   45.4090 H       1  ZINC000876376999    0.0900
     53 H53       -17.9024   -4.3440   45.0060 H       1  ZINC000876376999    0.0600
     54 H54       -17.7644   -4.2907   46.7824 H       1  ZINC000876376999    0.1000
@<TRIPOS>BOND
     1     1     2    1
     2     1    27    1
     3     1    28    1
     4     1    29    1
     5     2     3    1
     6     2    30    1
     7     2    31    1
     8     3    26    1
     9     3     4    1
    10     3     6    1
    11     4     5    1
    12     4    32    1
    13     4    33    1
    14     5    34    1
    15     6     7    1
    16     6    35    1
    17     6    36    1
    18     7     8    1
    19     7    37    1
    20     7    38    1
    21     8     9    1
    22     8    39    1
    23     8    40    1
    24     9    10   am
    25     9    26    1
    26    10    11    2
    27    10    12   am
    28    12    13    1
    29    12    41    1
    30    13    14    1
    31    13    42    1
    32    13    43    1
    33    14    22    1
    34    14    15    1
    35    14    44    1
    36    15    16    1
    37    15    45    1
    38    15    46    1
    39    16    17    1
    40    16    23    1
    41    16    18    1
    42    18    19    1
    43    18    47    1
    44    18    48    1
    45    19    20    1
    46    19    49    1
    47    19    50    1
    48    20    21    1
    49    20    22    1
    50    20    23    1
    51    22    51    1
    52    22    52    1
    53    23    24    2
    54    23    25    2
    55    26    53    1
    56    26    54    1
@<TRIPOS>SUBSTRUCTURE
     1 ZINC000876376999        1 TEMP              0 ****  ****    0 ROOT


##########                                Name:    ZINC000089894387
##########                DOCK_Rotatable_Bonds:                   8
##########                         Heavy_Atoms:                  22
##########                    Molecular_Weight:             326.823
##########                DOCK_Rotatable_Bonds:                   8
##########                       Formal_Charge:          -0.0300003
##########                     HBond_Acceptors:                   6
##########                        HBond_Donors:                   2
##########                         Heavy_Atoms:                  22
##########                          Grid_Score:          -27.823233
##########                     Grid_vdw_energy:          -28.072382
##########                      Grid_es_energy:            0.249150
##########           Internal_energy_repulsive:           12.085361

@<TRIPOS>MOLECULE
ZINC000089894387
 45 46 1 0 0
SMALL
USER_CHARGES


@<TRIPOS>ATOM
      1 C1          4.2296   -0.4555   45.6054 C.3     1  ZINC000089894387   -0.1700
      2 C2          3.6170    0.2875   46.7944 C.3     1  ZINC000089894387    0.1700
      3 H3          3.8042    1.3563   46.6905 H       1  ZINC000089894387    0.0900
      4 N4          2.1726    0.0457   46.8296 N.am    1  ZINC000089894387   -0.7400
      5 C5          1.3155    1.0857   46.8478 C.2     1  ZINC000089894387    0.7100
      6 O6          1.7411    2.2246   46.8365 O.2     1  ZINC000089894387   -0.5900
      7 N7         -0.0134    0.8633   46.8786 N.am    1  ZINC000089894387   -0.7500
      8 C8         -0.9451    1.9938   46.8966 C.3     1  ZINC000089894387    0.1400
      9 C9         -1.1199    2.4876   48.3341 C.3     1  ZINC000089894387    0.0500
     10 O10        -2.3638    3.1811   48.4516 O.3     1  ZINC000089894387   -0.3100
     11 C11        -3.0134    3.0856   49.6415 C.ar    1  ZINC000089894387    0.1400
     12 C12        -2.3580    3.4142   50.8191 C.ar    1  ZINC000089894387   -0.2100
     13 C13        -3.0200    3.3164   52.0279 C.ar    1  ZINC000089894387   -0.0700
     14 C14        -4.3349    2.8917   52.0651 C.ar    1  ZINC000089894387   -0.1500
     15 C15        -4.9915    2.5628   50.8918 C.ar    1  ZINC000089894387    0.0000
     16 Cl16       -6.6428    2.0296   50.9419 Cl      1  ZINC000089894387   -0.0600
     17 C17        -4.3349    2.6649   49.6796 C.ar    1  ZINC000089894387   -0.1500
     18 C18         4.2504   -0.2173   48.0924 C.3     1  ZINC000089894387   -0.1000
     19 C19         4.4234    0.9519   49.0667 C.3     1  ZINC000089894387   -0.1600
     20 C20         4.9842    0.4246   50.3901 C.3     1  ZINC000089894387    0.0600
     21 O21         4.1048   -0.5720   50.9151 O.3     1  ZINC000089894387   -0.3800
     22 C22         3.9418   -1.7112   50.0680 C.3     1  ZINC000089894387    0.0600
     23 C23         3.3392   -1.2697   48.7317 C.3     1  ZINC000089894387   -0.1500
     24 H24         4.0426   -1.5243   45.7093 H       1  ZINC000089894387    0.0600
     25 H25         3.7784   -0.0959   44.6807 H       1  ZINC000089894387    0.0600
     26 H26         5.3044   -0.2756   45.5792 H       1  ZINC000089894387    0.0700
     27 H27         1.8330   -0.8629   46.8398 H       1  ZINC000089894387    0.3900
     28 H28        -0.3530   -0.0453   46.8888 H       1  ZINC000089894387    0.4000
     29 H29        -0.5488    2.8010   46.2808 H       1  ZINC000089894387    0.0800
     30 H30        -1.9100    1.6756   46.5020 H       1  ZINC000089894387    0.0900
     31 H31        -1.1131    1.6359   49.0144 H       1  ZINC000089894387    0.0900
     32 H32        -0.3024    3.1623   48.5886 H       1  ZINC000089894387    0.0700
     33 H33        -1.3306    3.7458   50.7911 H       1  ZINC000089894387    0.1300
     34 H34        -2.5096    3.5718   52.9447 H       1  ZINC000089894387    0.1400
     35 H35        -4.8506    2.8160   53.0110 H       1  ZINC000089894387    0.1400
     36 H36        -4.8473    2.4087   48.7641 H       1  ZINC000089894387    0.1400
     37 H37         5.2225   -0.6600   47.8756 H       1  ZINC000089894387    0.0800
     38 H38         5.1146    1.6802   48.6426 H       1  ZINC000089894387    0.0700
     39 H39         3.4574    1.4250   49.2432 H       1  ZINC000089894387    0.0800
     40 H40         5.9681   -0.0122   50.2195 H       1  ZINC000089894387    0.0500
     41 H41         5.0693    1.2458   51.1018 H       1  ZINC000089894387    0.0900
     42 H42         4.9122   -2.1760   49.8933 H       1  ZINC000089894387    0.0500
     43 H43         3.2761   -2.4286   50.5477 H       1  ZINC000089894387    0.1000
     44 H44         2.3513   -0.8415   48.9014 H       1  ZINC000089894387    0.0800
     45 H45         3.2550   -2.1303   48.0680 H       1  ZINC000089894387    0.0800
@<TRIPOS>BOND
     1     1     2    1
     2     1    24    1
     3     1    25    1
     4     1    26    1
     5     2     3    1
     6     2     4    1
     7     2    18    1
     8     4     5   am
     9     4    27    1
    10     5     6    2
    11     5     7   am
    12     7     8    1
    13     7    28    1
    14     8     9    1
    15     8    29    1
    16     8    30    1
    17     9    10    1
    18     9    31    1
    19     9    32    1
    20    10    11    1
    21    11    17   ar
    22    11    12   ar
    23    12    13   ar
    24    12    33    1
    25    13    14   ar
    26    13    34    1
    27    14    15   ar
    28    14    35    1
    29    15    16    1
    30    15    17   ar
    31    17    36    1
    32    18    23    1
    33    18    19    1
    34    18    37    1
    35    19    20    1
    36    19    38    1
    37    19    39    1
    38    20    21    1
    39    20    40    1
    40    20    41    1
    41    21    22    1
    42    22    23    1
    43    22    42    1
    44    22    43    1
    45    23    44    1
    46    23    45    1
@<TRIPOS>SUBSTRUCTURE
     1 ZINC000089894387        1 TEMP              0 ****  ****    0 ROOT


##########                                Name:    ZINC000581017854
##########                DOCK_Rotatable_Bonds:                   6
##########                         Heavy_Atoms:                  24
##########                    Molecular_Weight:             330.334
##########                DOCK_Rotatable_Bonds:                   6
##########                       Formal_Charge:           0.0099998
##########                     HBond_Acceptors:                   6
##########                        HBond_Donors:                   2
##########                         Heavy_Atoms:                  24
##########                          Grid_Score:          -27.803326
##########                     Grid_vdw_energy:          -28.078674
##########                      Grid_es_energy:            0.275349
##########           Internal_energy_repulsive:            9.921238

@<TRIPOS>MOLECULE
ZINC000581017854
 40 42 1 0 0
SMALL
USER_CHARGES


@<TRIPOS>ATOM
      1 C1         -3.4064    3.4390   51.6773 C.3     1  ZINC000581017854   -0.1600
      2 C2         -4.2052    3.0199   50.4415 C.3     1  ZINC000581017854    0.1500
      3 H3         -4.8371    3.8476   50.1194 H       1  ZINC000581017854    0.1100
      4 C4         -3.2413    2.6454   49.3140 C.3     1  ZINC000581017854    0.0500
      5 O5         -2.4314    3.7758   48.9846 O.3     1  ZINC000581017854   -0.3100
      6 C6         -1.4851    3.5983   48.0255 C.ar    1  ZINC000581017854    0.1600
      7 C7         -1.3600    2.3704   47.3921 C.ar    1  ZINC000581017854   -0.2200
      8 C8         -0.3975    2.1910   46.4170 C.ar    1  ZINC000581017854   -0.0500
      9 C9          0.4416    3.2336   46.0719 C.ar    1  ZINC000581017854   -0.1900
     10 C10         0.3200    4.4608   46.7026 C.ar    1  ZINC000581017854    0.1400
     11 F11         1.1413    5.4786   46.3639 F       1  ZINC000581017854   -0.1300
     12 C12        -0.6468    4.6463   47.6746 C.ar    1  ZINC000581017854   -0.1900
     13 N13        -5.0438    1.8647   50.7709 N.am    1  ZINC000581017854   -0.7300
     14 C14        -6.2351    2.0469   51.3743 C.2     1  ZINC000581017854    0.5900
     15 O15        -6.6134    3.1707   51.6468 O.2     1  ZINC000581017854   -0.5400
     16 C16        -7.0769    0.8886   51.7030 C.2     1  ZINC000581017854   -0.2200
     17 C17        -6.7769   -0.4244   51.4912 C.2     1  ZINC000581017854    0.1100
     18 N18        -7.7976   -1.2035   51.9246 N.pl3   1  ZINC000581017854   -0.5700
     19 C19        -8.8126   -0.4243   52.4407 C.ar    1  ZINC000581017854    0.1100
     20 C20       -10.0499   -0.7225   53.0011 C.ar    1  ZINC000581017854   -0.1600
     21 C21       -10.8706    0.2968   53.4393 C.ar    1  ZINC000581017854    0.1200
     22 F22       -12.0716    0.0026   53.9836 F       1  ZINC000581017854   -0.1400
     23 C23       -10.4723    1.6229   53.3262 C.ar    1  ZINC000581017854   -0.1700
     24 C24        -9.2498    1.9362   52.7735 C.ar    1  ZINC000581017854   -0.0300
     25 C25        -8.4101    0.9167   52.3330 C.ar    1  ZINC000581017854   -0.0700
     26 H26        -2.7824    4.2985   51.4322 H       1  ZINC000581017854    0.0700
     27 H27        -4.0931    3.7058   52.4806 H       1  ZINC000581017854    0.0700
     28 H28        -2.7745    2.6113   51.9994 H       1  ZINC000581017854    0.0700
     29 H29        -2.6032    1.8238   49.6394 H       1  ZINC000581017854    0.0700
     30 H30        -3.8103    2.3381   48.4365 H       1  ZINC000581017854    0.0800
     31 H31        -2.0147    1.5547   47.6611 H       1  ZINC000581017854    0.1400
     32 H32        -0.3006    1.2349   45.9242 H       1  ZINC000581017854    0.1400
     33 H33         1.1935    3.0910   45.3098 H       1  ZINC000581017854    0.1400
     34 H34        -0.7424    5.6030   48.1665 H       1  ZINC000581017854    0.1400
     35 H35        -4.7417    0.9687   50.5548 H       1  ZINC000581017854    0.4000
     36 H36        -5.8634   -0.7889   51.0452 H       1  ZINC000581017854    0.1800
     37 H37        -7.8128   -2.1723   51.8780 H       1  ZINC000581017854    0.4200
     38 H38       -10.3684   -1.7504   53.0930 H       1  ZINC000581017854    0.1400
     39 H39       -11.1239    2.4114   53.6726 H       1  ZINC000581017854    0.1400
     40 H40        -8.9425    2.9679   52.6863 H       1  ZINC000581017854    0.1500
@<TRIPOS>BOND
     1     1     2    1
     2     1    26    1
     3     1    27    1
     4     1    28    1
     5     2     3    1
     6     2     4    1
     7     2    13    1
     8     4     5    1
     9     4    29    1
    10     4    30    1
    11     5     6    1
    12     6    12   ar
    13     6     7   ar
    14     7     8   ar
    15     7    31    1
    16     8     9   ar
    17     8    32    1
    18     9    10   ar
    19     9    33    1
    20    10    11    1
    21    10    12   ar
    22    12    34    1
    23    13    14   am
    24    13    35    1
    25    14    15    2
    26    14    16    1
    27    16    25    1
    28    16    17    2
    29    17    18    1
    30    17    36    1
    31    18    19    1
    32    18    37    1
    33    19    25   ar
    34    19    20   ar
    35    20    21   ar
    36    20    38    1
    37    21    22    1
    38    21    23   ar
    39    23    24   ar
    40    23    39    1
    41    24    25   ar
    42    24    40    1
@<TRIPOS>SUBSTRUCTURE
     1 ZINC000581017854        1 TEMP              0 ****  ****    0 ROOT


##########                                Name:    ZINC001009116151
##########                DOCK_Rotatable_Bonds:                   6
##########                         Heavy_Atoms:                  25
##########                    Molecular_Weight:             342.481
##########                DOCK_Rotatable_Bonds:                   6
##########                       Formal_Charge:           0.0600006
##########                     HBond_Acceptors:                   4
##########                        HBond_Donors:                   1
##########                         Heavy_Atoms:                  25
##########                          Grid_Score:          -27.800476
##########                     Grid_vdw_energy:          -27.817154
##########                      Grid_es_energy:            0.016678
##########           Internal_energy_repulsive:           13.550160

@<TRIPOS>MOLECULE
ZINC001009116151
 55 59 1 0 0
SMALL
USER_CHARGES


@<TRIPOS>ATOM
      1 O1         -1.5425    5.3417   49.5972 O.2     1  ZINC001009116151   -0.5400
      2 C2         -1.5989    4.1352   49.4877 C.2     1  ZINC001009116151    0.5200
      3 N3         -2.5384    3.4407   50.1597 N.am    1  ZINC001009116151   -0.7300
      4 C4         -3.4875    4.1426   51.0273 C.3     1  ZINC001009116151    0.1500
      5 C5         -4.8483    3.4461   50.9634 C.3     1  ZINC001009116151   -0.1200
      6 H6         -5.4639    3.6967   50.0995 H       1  ZINC001009116151    0.1100
      7 C7         -5.5667    3.1793   52.2876 C.3     1  ZINC001009116151   -0.1700
      8 H8         -5.1325    3.5458   53.2178 H       1  ZINC001009116151    0.1200
      9 C9         -7.0923    2.9446   52.2535 C.3     1  ZINC001009116151    0.1300
     10 N10        -7.2414    1.4906   52.0117 N.am    1  ZINC001009116151   -0.6200
     11 C11        -8.1386    0.6488   52.5620 C.2     1  ZINC001009116151    0.5500
     12 O12        -8.1323   -0.5259   52.2607 O.2     1  ZINC001009116151   -0.5300
     13 C13        -9.1497    1.1674   53.5519 C.3     1  ZINC001009116151   -0.1200
     14 C14       -10.0902    2.2035   52.8937 C.3     1  ZINC001009116151   -0.0900
     15 C15       -11.2826    1.3996   52.4297 C.2     1  ZINC001009116151   -0.1800
     16 C16       -11.3152    0.2304   53.0089 C.2     1  ZINC001009116151   -0.1500
     17 C17       -10.1501    0.0595   53.9557 C.3     1  ZINC001009116151   -0.0900
     18 C18        -6.1807    1.1719   51.0279 C.3     1  ZINC001009116151    0.1200
     19 C19        -4.9340    2.0156   51.4993 C.3     1  ZINC001009116151   -0.1600
     20 H20        -4.0524    1.4697   51.8351 H       1  ZINC001009116151    0.1300
     21 C21        -0.6226    3.4131   48.5952 C.3     1  ZINC001009116151   -0.0700
     22 C22         0.2370    4.4346   47.8479 C.3     1  ZINC001009116151   -0.1100
     23 C23         1.2282    3.7015   46.9418 C.3     1  ZINC001009116151   -0.1100
     24 C24         1.0294    2.1912   47.0852 C.3     1  ZINC001009116151   -0.0900
     25 C25         1.2684    1.7811   48.5396 C.3     1  ZINC001009116151   -0.1100
     26 C26         0.2772    2.5142   49.4457 C.3     1  ZINC001009116151   -0.0900
     27 C27        -0.3996    1.8242   46.6801 C.3     1  ZINC001009116151   -0.1100
     28 C28        -1.3908    2.5574   47.5861 C.3     1  ZINC001009116151   -0.1000
     29 H29        -2.5861    2.4762   50.0690 H       1  ZINC001009116151    0.4000
     30 H30        -3.1202    4.1293   52.0534 H       1  ZINC001009116151    0.0800
     31 H31        -3.5915    5.1746   50.6921 H       1  ZINC001009116151    0.0700
     32 H32        -7.5405    3.2190   53.2084 H       1  ZINC001009116151    0.0900
     33 H33        -7.5463    3.5134   51.4420 H       1  ZINC001009116151    0.0800
     34 H34        -8.6562    1.5873   54.4284 H       1  ZINC001009116151    0.1100
     35 H35       -10.3981    2.9535   53.6221 H       1  ZINC001009116151    0.0900
     36 H36        -9.5980    2.6773   52.0443 H       1  ZINC001009116151    0.0800
     37 H37       -12.0122    1.7471   51.7133 H       1  ZINC001009116151    0.1300
     38 H38       -12.0754   -0.5167   52.8346 H       1  ZINC001009116151    0.1300
     39 H39        -9.6986   -0.9245   53.8284 H       1  ZINC001009116151    0.0900
     40 H40       -10.4750    0.1985   54.9867 H       1  ZINC001009116151    0.0900
     41 H41        -5.9412    0.1090   51.0580 H       1  ZINC001009116151    0.0900
     42 H42        -6.4923    1.4639   50.0250 H       1  ZINC001009116151    0.0800
     43 H43        -0.4041    5.0749   47.2420 H       1  ZINC001009116151    0.0700
     44 H44         0.7842    5.0442   48.5668 H       1  ZINC001009116151    0.0700
     45 H45         1.0579    3.9936   45.9055 H       1  ZINC001009116151    0.0700
     46 H46         2.2463    3.9629   47.2304 H       1  ZINC001009116151    0.0700
     47 H47         1.7356    1.6689   46.4396 H       1  ZINC001009116151    0.0700
     48 H48         1.1268    0.7051   48.6417 H       1  ZINC001009116151    0.0700
     49 H49         2.2865    2.0426   48.8283 H       1  ZINC001009116151    0.0700
     50 H50         0.8245    3.1239   50.1646 H       1  ZINC001009116151    0.0700
     51 H51        -0.3352    1.7866   49.9782 H       1  ZINC001009116151    0.0700
     52 H52        -0.5699    2.1164   45.6438 H       1  ZINC001009116151    0.0700
     53 H53        -0.5412    0.7483   46.7822 H       1  ZINC001009116151    0.0700
     54 H54        -2.0032    1.8296   48.1185 H       1  ZINC001009116151    0.0700
     55 H55        -2.0319    3.1977   46.9802 H       1  ZINC001009116151    0.0700
@<TRIPOS>BOND
     1     1     2    2
     2     2     3   am
     3     2    21    1
     4     3     4    1
     5     3    29    1
     6     4     5    1
     7     4    30    1
     8     4    31    1
     9     5     6    1
    10     5    19    1
    11     5     7    1
    12     7     8    1
    13     7    19    1
    14     7     9    1
    15     9    10    1
    16     9    32    1
    17     9    33    1
    18    10    11   am
    19    10    18    1
    20    11    12    2
    21    11    13    1
    22    13    17    1
    23    13    14    1
    24    13    34    1
    25    14    15    1
    26    14    35    1
    27    14    36    1
    28    15    16    2
    29    15    37    1
    30    16    17    1
    31    16    38    1
    32    17    39    1
    33    17    40    1
    34    18    19    1
    35    18    41    1
    36    18    42    1
    37    19    20    1
    38    21    26    1
    39    21    28    1
    40    21    22    1
    41    22    23    1
    42    22    43    1
    43    22    44    1
    44    23    24    1
    45    23    45    1
    46    23    46    1
    47    24    25    1
    48    24    27    1
    49    24    47    1
    50    25    26    1
    51    25    48    1
    52    25    49    1
    53    26    50    1
    54    26    51    1
    55    27    28    1
    56    27    52    1
    57    27    53    1
    58    28    54    1
    59    28    55    1
@<TRIPOS>SUBSTRUCTURE
     1 ZINC001009116151        1 TEMP              0 ****  ****    0 ROOT


##########                                Name:    ZINC001002468398
##########                DOCK_Rotatable_Bonds:                   7
##########                         Heavy_Atoms:                  24
##########                    Molecular_Weight:             341.358
##########                DOCK_Rotatable_Bonds:                   7
##########                       Formal_Charge:           0.0100001
##########                     HBond_Acceptors:                   8
##########                        HBond_Donors:                   0
##########                         Heavy_Atoms:                  24
##########                          Grid_Score:          -27.798092
##########                     Grid_vdw_energy:          -26.582766
##########                      Grid_es_energy:           -1.215326
##########           Internal_energy_repulsive:           16.470425

@<TRIPOS>MOLECULE
ZINC001002468398
 45 47 1 0 0
SMALL
USER_CHARGES


@<TRIPOS>ATOM
      1 C1          2.4382    0.1295   46.7453 C.3     1  ZINC001002468398   -0.1400
      2 C2          2.8598    1.5845   46.9603 C.3     1  ZINC001002468398   -0.0500
      3 C3          2.0367    2.4823   46.0730 C.2     1  ZINC001002468398    0.0500
      4 C4          0.9793    3.2494   46.4547 C.2     1  ZINC001002468398   -0.0800
      5 C5          0.4225    3.3589   47.8152 C.2     1  ZINC001002468398    0.6000
      6 O6          0.9927    4.0311   48.6531 O.2     1  ZINC001002468398   -0.5300
      7 N7         -0.7183    2.7143   48.1305 N.am    1  ZINC001002468398   -0.6000
      8 C8         -1.4050    1.9045   47.1211 C.3     1  ZINC001002468398    0.0900
      9 C9         -1.2715    2.8232   49.4826 C.3     1  ZINC001002468398    0.1000
     10 C10        -2.1833    4.0491   49.5632 C.3     1  ZINC001002468398    0.1300
     11 H11        -2.6163    4.2540   48.5842 H       1  ZINC001002468398    0.0800
     12 C12        -1.3764    5.2725   50.0468 C.3     1  ZINC001002468398   -0.1300
     13 C13        -2.3789    6.0041   50.9779 C.3     1  ZINC001002468398   -0.1300
     14 C14        -3.1295    4.8129   51.6240 C.3     1  ZINC001002468398    0.1000
     15 N15        -3.2534    3.8129   50.5435 N.am    1  ZINC001002468398   -0.6100
     16 C16        -4.1896    2.8461   50.4716 C.2     1  ZINC001002468398    0.5600
     17 O17        -4.1958    2.0765   49.5342 O.2     1  ZINC001002468398   -0.5100
     18 C18        -5.2286    2.7211   51.5560 C.3     1  ZINC001002468398   -0.2000
     19 H19        -5.0747    3.3544   52.4297 H       1  ZINC001002468398    0.1500
     20 C20        -5.8494    1.3415   51.7841 C.3     1  ZINC001002468398   -0.1500
     21 C21        -6.6714    2.4515   51.1244 C.3     1  ZINC001002468398    0.2300
     22 F22        -7.6923    3.0362   51.8814 F       1  ZINC001002468398   -0.1500
     23 F23        -6.9253    2.3393   49.7531 F       1  ZINC001002468398   -0.1400
     24 N24         0.5330    3.8967   45.3440 N.2     1  ZINC001002468398   -0.4600
     25 C25         1.2753    3.5461   44.3369 C.2     1  ZINC001002468398    0.1700
     26 O26         2.2104    2.6822   44.7568 O.3     1  ZINC001002468398   -0.2000
     27 H27         1.3828    0.0167   46.9934 H       1  ZINC001002468398    0.0600
     28 H28         2.5978   -0.1448   45.7026 H       1  ZINC001002468398    0.0600
     29 H29         3.0336   -0.5199   47.3871 H       1  ZINC001002468398    0.0700
     30 H30         2.7004    1.8587   48.0030 H       1  ZINC001002468398    0.1200
     31 H31         3.9152    1.6973   46.7123 H       1  ZINC001002468398    0.0900
     32 H32        -0.7621    1.0774   46.8198 H       1  ZINC001002468398    0.0700
     33 H33        -2.3312    1.5108   47.5397 H       1  ZINC001002468398    0.0700
     34 H34        -1.6327    2.5227   46.2527 H       1  ZINC001002468398    0.0700
     35 H35        -1.8470    1.9266   49.7131 H       1  ZINC001002468398    0.0900
     36 H36        -0.4581    2.9275   50.2007 H       1  ZINC001002468398    0.0900
     37 H37        -0.4935    4.9570   50.6027 H       1  ZINC001002468398    0.1000
     38 H38        -1.0975    5.9073   49.2057 H       1  ZINC001002468398    0.0800
     39 H39        -1.8548    6.5909   51.7322 H       1  ZINC001002468398    0.0900
     40 H40        -3.0611    6.6301   50.4027 H       1  ZINC001002468398    0.0800
     41 H41        -2.5524    4.4064   52.4545 H       1  ZINC001002468398    0.0800
     42 H42        -4.1166    5.1261   51.9641 H       1  ZINC001002468398    0.0800
     43 H43        -5.5063    0.5241   51.1497 H       1  ZINC001002468398    0.1300
     44 H44        -6.1043    1.0672   52.8077 H       1  ZINC001002468398    0.1400
     45 H45         1.1600    3.8984   43.3225 H       1  ZINC001002468398    0.2600
@<TRIPOS>BOND
     1     1     2    1
     2     1    27    1
     3     1    28    1
     4     1    29    1
     5     2     3    1
     6     2    30    1
     7     2    31    1
     8     3    26    1
     9     3     4    2
    10     4     5    1
    11     4    24    1
    12     5     6    2
    13     5     7   am
    14     7     8    1
    15     7     9    1
    16     8    32    1
    17     8    33    1
    18     8    34    1
    19     9    10    1
    20     9    35    1
    21     9    36    1
    22    10    11    1
    23    10    15    1
    24    10    12    1
    25    12    13    1
    26    12    37    1
    27    12    38    1
    28    13    14    1
    29    13    39    1
    30    13    40    1
    31    14    15    1
    32    14    41    1
    33    14    42    1
    34    15    16   am
    35    16    17    2
    36    16    18    1
    37    18    19    1
    38    18    21    1
    39    18    20    1
    40    20    21    1
    41    20    43    1
    42    20    44    1
    43    21    22    1
    44    21    23    1
    45    24    25    2
    46    25    26    1
    47    25    45    1
@<TRIPOS>SUBSTRUCTURE
     1 ZINC001002468398        1 TEMP              0 ****  ****    0 ROOT


##########                                Name:    ZINC000186105981
##########                DOCK_Rotatable_Bonds:                   6
##########                         Heavy_Atoms:                  26
##########                    Molecular_Weight:             396.873
##########                DOCK_Rotatable_Bonds:                   6
##########                       Formal_Charge:          -0.0400003
##########                     HBond_Acceptors:                   9
##########                        HBond_Donors:                   1
##########                         Heavy_Atoms:                  26
##########                          Grid_Score:          -27.768713
##########                     Grid_vdw_energy:          -28.659075
##########                      Grid_es_energy:            0.890362
##########           Internal_energy_repulsive:           29.660452

@<TRIPOS>MOLECULE
ZINC000186105981
 44 46 1 0 0
SMALL
USER_CHARGES


@<TRIPOS>ATOM
      1 C1          1.5450    4.1801   47.4440 C.3     1  ZINC000186105981   -0.1400
      2 C2          0.3558    3.7420   46.5868 C.3     1  ZINC000186105981   -0.1100
      3 C3          0.8468    3.3663   45.1873 C.3     1  ZINC000186105981   -0.1600
      4 C4         -0.3194    2.5304   47.2325 C.3     1  ZINC000186105981    0.1600
      5 H5         -0.8339    1.9501   46.4666 H       1  ZINC000186105981    0.1200
      6 C6         -1.3158    2.9996   48.2612 C.2     1  ZINC000186105981    0.4900
      7 O7         -1.4608    4.1859   48.4682 O.2     1  ZINC000186105981   -0.4300
      8 N8         -2.0458    2.1011   48.9513 N.am    1  ZINC000186105981   -0.6300
      9 C9         -2.9646    2.5338   49.8999 C.2     1  ZINC000186105981    0.2400
     10 N10        -2.6935    3.2205   50.9731 N.2     1  ZINC000186105981   -0.2600
     11 N11        -3.6541    3.5315   51.7287 N.2     1  ZINC000186105981   -0.2000
     12 C12        -4.8488    3.1431   51.3806 C.2     1  ZINC000186105981    0.0300
     13 C13        -6.0999    3.4038   52.1231 C.ar    1  ZINC000186105981   -0.0500
     14 C14        -6.4098    4.6998   52.5436 C.ar    1  ZINC000186105981    0.1300
     15 F15        -5.5662    5.7198   52.2727 F       1  ZINC000186105981   -0.1200
     16 C16        -7.5820    4.9355   53.2372 C.ar    1  ZINC000186105981   -0.1400
     17 C17        -8.4465    3.8924   53.5146 C.ar    1  ZINC000186105981   -0.0600
     18 C18        -8.1454    2.6067   53.1015 C.ar    1  ZINC000186105981   -0.1200
     19 C19        -6.9810    2.3568   52.4028 C.ar    1  ZINC000186105981    0.0200
     20 Cl20       -6.6062    0.7427   51.8853 Cl      1  ZINC000186105981   -0.0100
     21 S21        -4.7071    2.2573   49.8609 S.3     1  ZINC000186105981    0.1200
     22 N22         0.6941    1.6942   47.8803 N.am    1  ZINC000186105981   -0.6100
     23 C23         1.1310    1.8517   49.2726 C.3     1  ZINC000186105981    0.1000
     24 C24         1.8462    0.5304   49.6320 C.3     1  ZINC000186105981   -0.1300
     25 C25         2.3088    0.0341   48.2426 C.3     1  ZINC000186105981   -0.1600
     26 C26         1.3392    0.6804   47.2779 C.2     1  ZINC000186105981    0.5200
     27 O27         1.1732    0.3384   46.1262 O.2     1  ZINC000186105981   -0.5000
     28 H28         2.0260    5.0432   46.9839 H       1  ZINC000186105981    0.0600
     29 H29         1.1952    4.4477   48.4410 H       1  ZINC000186105981    0.0600
     30 H30         2.2609    3.3615   47.5177 H       1  ZINC000186105981    0.0600
     31 H31        -0.3601    4.5606   46.5131 H       1  ZINC000186105981    0.0900
     32 H32         1.4898    2.4885   45.2512 H       1  ZINC000186105981    0.0600
     33 H33        -0.0088    3.1444   44.5494 H       1  ZINC000186105981    0.0600
     34 H34         1.4093    4.1986   44.7640 H       1  ZINC000186105981    0.0700
     35 H35        -1.9299    1.1524   48.7858 H       1  ZINC000186105981    0.4200
     36 H36        -7.8232    5.9364   53.5633 H       1  ZINC000186105981    0.1500
     37 H37        -9.3611    4.0822   54.0567 H       1  ZINC000186105981    0.1500
     38 H38        -8.8253    1.7970   53.3221 H       1  ZINC000186105981    0.1500
     39 H39         1.8222    2.6901   49.3585 H       1  ZINC000186105981    0.0700
     40 H40         0.2698    2.0036   49.9233 H       1  ZINC000186105981    0.0800
     41 H41         2.6996    0.7138   50.2848 H       1  ZINC000186105981    0.0900
     42 H42         1.1531   -0.1767   50.0880 H       1  ZINC000186105981    0.0800
     43 H43         3.3288    0.3612   48.0408 H       1  ZINC000186105981    0.1100
     44 H44         2.2362   -1.0519   48.1818 H       1  ZINC000186105981    0.1000
@<TRIPOS>BOND
     1     1     2    1
     2     1    28    1
     3     1    29    1
     4     1    30    1
     5     2     3    1
     6     2     4    1
     7     2    31    1
     8     3    32    1
     9     3    33    1
    10     3    34    1
    11     4     5    1
    12     4     6    1
    13     4    22    1
    14     6     7    2
    15     6     8   am
    16     8     9    1
    17     8    35    1
    18     9    21    1
    19     9    10    2
    20    10    11    1
    21    11    12    2
    22    12    13    1
    23    12    21    1
    24    13    19   ar
    25    13    14   ar
    26    14    15    1
    27    14    16   ar
    28    16    17   ar
    29    16    36    1
    30    17    18   ar
    31    17    37    1
    32    18    19   ar
    33    18    38    1
    34    19    20    1
    35    22    26   am
    36    22    23    1
    37    23    24    1
    38    23    39    1
    39    23    40    1
    40    24    25    1
    41    24    41    1
    42    24    42    1
    43    25    26    1
    44    25    43    1
    45    25    44    1
    46    26    27    2
@<TRIPOS>SUBSTRUCTURE
     1 ZINC000186105981        1 TEMP              0 ****  ****    0 ROOT


##########                                Name:    ZINC000291574087
##########                DOCK_Rotatable_Bonds:                   8
##########                         Heavy_Atoms:                  23
##########                    Molecular_Weight:             387.249
##########                DOCK_Rotatable_Bonds:                   8
##########                       Formal_Charge:          -0.0400007
##########                     HBond_Acceptors:                   6
##########                        HBond_Donors:                   2
##########                         Heavy_Atoms:                  23
##########                          Grid_Score:          -27.768454
##########                     Grid_vdw_energy:          -25.832458
##########                      Grid_es_energy:           -1.935994
##########           Internal_energy_repulsive:           22.632845

@<TRIPOS>MOLECULE
ZINC000291574087
 43 44 1 0 0
SMALL
USER_CHARGES


@<TRIPOS>ATOM
      1 C1         -1.4401    3.9024   54.0490 C.3     1  ZINC000291574087    0.0200
      2 O2         -2.2992    4.6172   53.1584 O.3     1  ZINC000291574087   -0.3700
      3 C3         -1.9344    4.5021   51.7815 C.3     1  ZINC000291574087    0.1400
      4 C4         -2.7851    5.4612   50.9466 C.3     1  ZINC000291574087   -0.1500
      5 C5         -2.1722    3.0664   51.3091 C.3     1  ZINC000291574087    0.0900
      6 N6         -3.5765    2.7083   51.5229 N.am    1  ZINC000291574087   -0.6900
      7 C7         -4.2777    2.1129   50.5378 C.2     1  ZINC000291574087    0.5100
      8 O8         -3.7462    1.8748   49.4732 O.2     1  ZINC000291574087   -0.5100
      9 C9         -5.7088    1.7463   50.7565 C.2     1  ZINC000291574087    0.5100
     10 O10        -6.4193    1.4814   49.8086 O.2     1  ZINC000291574087   -0.4900
     11 N11        -6.2115    1.7093   52.0065 N.am    1  ZINC000291574087   -0.6400
     12 C12        -7.5517    1.3659   52.2113 C.ar    1  ZINC000291574087    0.1300
     13 C13        -8.5207    2.3575   52.2834 C.ar    1  ZINC000291574087   -0.1000
     14 C14        -9.8440    2.0156   52.4853 C.ar    1  ZINC000291574087   -0.0400
     15 C15       -10.8956    3.0920   52.5635 C.3     1  ZINC000291574087   -0.1300
     16 C16       -10.2052    0.6865   52.6155 C.ar    1  ZINC000291574087   -0.0900
     17 Br17      -12.0182    0.2243   52.8904 Br      1  ZINC000291574087   -0.0300
     18 C18        -9.2429   -0.3056   52.5443 C.ar    1  ZINC000291574087   -0.1000
     19 C19        -7.9176    0.0293   52.3376 C.ar    1  ZINC000291574087    0.0700
     20 F20        -6.9781   -0.9390   52.2681 F       1  ZINC000291574087   -0.1300
     21 C21        -0.4551    4.8554   51.6147 C.3     1  ZINC000291574087   -0.1900
     22 C22         0.5066    3.7200   51.2588 C.3     1  ZINC000291574087   -0.1700
     23 C23         0.1377    4.7679   50.2069 C.3     1  ZINC000291574087   -0.1600
     24 H24        -1.7840    4.0401   55.0742 H       1  ZINC000291574087    0.0900
     25 H25        -1.4590    2.8416   53.7988 H       1  ZINC000291574087    0.0400
     26 H26        -0.4222    4.2803   53.9534 H       1  ZINC000291574087    0.0500
     27 H27        -2.6157    6.4840   51.2831 H       1  ZINC000291574087    0.0700
     28 H28        -2.5068    5.3735   49.8964 H       1  ZINC000291574087    0.0800
     29 H29        -3.8389    5.2095   51.0654 H       1  ZINC000291574087    0.0700
     30 H30        -1.9350    2.9889   50.2481 H       1  ZINC000291574087    0.0900
     31 H31        -1.5340    2.3874   51.8747 H       1  ZINC000291574087    0.0800
     32 H32        -4.0018    2.8996   52.3736 H       1  ZINC000291574087    0.4200
     33 H33        -5.6438    1.9207   52.7640 H       1  ZINC000291574087    0.4300
     34 H34        -8.2402    3.3955   52.1820 H       1  ZINC000291574087    0.1600
     35 H35       -11.2882    3.2895   51.5661 H       1  ZINC000291574087    0.0800
     36 H36       -11.7056    2.7622   53.2141 H       1  ZINC000291574087    0.0800
     37 H37       -10.4537    4.0031   52.9670 H       1  ZINC000291574087    0.0800
     38 H38        -9.5280   -1.3422   52.6467 H       1  ZINC000291574087    0.1500
     39 H39        -0.0834    5.6438   52.2692 H       1  ZINC000291574087    0.1100
     40 H40         1.5114    3.7610   51.6794 H       1  ZINC000291574087    0.1000
     41 H41         0.0855    2.7212   51.1437 H       1  ZINC000291574087    0.1000
     42 H42        -0.5261    4.4587   49.3996 H       1  ZINC000291574087    0.1000
     43 H43         0.8997    5.4985   49.9355 H       1  ZINC000291574087    0.1000
@<TRIPOS>BOND
     1     1     2    1
     2     1    24    1
     3     1    25    1
     4     1    26    1
     5     2     3    1
     6     3     4    1
     7     3     5    1
     8     3    21    1
     9     4    27    1
    10     4    28    1
    11     4    29    1
    12     5     6    1
    13     5    30    1
    14     5    31    1
    15     6     7   am
    16     6    32    1
    17     7     8    2
    18     7     9    1
    19     9    10    2
    20     9    11   am
    21    11    12    1
    22    11    33    1
    23    12    19   ar
    24    12    13   ar
    25    13    14   ar
    26    13    34    1
    27    14    15    1
    28    14    16   ar
    29    15    35    1
    30    15    36    1
    31    15    37    1
    32    16    17    1
    33    16    18   ar
    34    18    19   ar
    35    18    38    1
    36    19    20    1
    37    21    23    1
    38    21    22    1
    39    21    39    1
    40    22    23    1
    41    22    40    1
    42    22    41    1
    43    23    42    1
    44    23    43    1
@<TRIPOS>SUBSTRUCTURE
     1 ZINC000291574087        1 TEMP              0 ****  ****    0 ROOT


##########                                Name:    ZINC000482139334
##########                DOCK_Rotatable_Bonds:                   4
##########                         Heavy_Atoms:                  26
##########                    Molecular_Weight:             348.376
##########                DOCK_Rotatable_Bonds:                   4
##########                       Formal_Charge:           0.0300002
##########                     HBond_Acceptors:                   5
##########                        HBond_Donors:                   1
##########                         Heavy_Atoms:                  26
##########                          Grid_Score:          -27.756441
##########                     Grid_vdw_energy:          -25.972652
##########                      Grid_es_energy:           -1.783788
##########           Internal_energy_repulsive:           16.713411

@<TRIPOS>MOLECULE
ZINC000482139334
 43 47 1 0 0
SMALL
USER_CHARGES


@<TRIPOS>ATOM
      1 O1         -5.7072    1.3938   50.3632 O.2     1  ZINC000482139334   -0.4800
      2 C2         -5.8594    1.6613   51.5362 C.2     1  ZINC000482139334    0.5500
      3 N3         -4.9959    2.4901   52.1559 N.am    1  ZINC000482139334   -0.6100
      4 C4         -3.9305    3.0320   51.4539 C.2     1  ZINC000482139334    0.4300
      5 N5         -3.5399    2.6635   50.2609 N.2     1  ZINC000482139334   -0.4800
      6 C6         -2.4694    3.4211   49.9051 C.2     1  ZINC000482139334    0.0400
      7 C7         -1.7159    3.3335   48.6301 C.ar    1  ZINC000482139334   -0.0500
      8 C8         -0.6462    4.1927   48.3895 C.ar    1  ZINC000482139334   -0.0800
      9 C9          0.0520    4.1066   47.2017 C.ar    1  ZINC000482139334   -0.1300
     10 C10        -0.3081    3.1700   46.2500 C.ar    1  ZINC000482139334   -0.0800
     11 C11        -1.3695    2.3137   46.4812 C.ar    1  ZINC000482139334   -0.1600
     12 C12        -2.0723    2.3860   47.6692 C.ar    1  ZINC000482139334    0.1300
     13 F13        -3.1088    1.5493   47.8948 F       1  ZINC000482139334   -0.1200
     14 C14        -2.2177    4.2710   50.9286 C.2     1  ZINC000482139334   -0.0600
     15 O15        -3.1364    4.0238   51.8855 O.3     1  ZINC000482139334   -0.1800
     16 C16        -7.0177    1.0722   52.2994 C.3     1  ZINC000482139334   -0.1800
     17 H17        -7.0275   -0.0153   52.3735 H       1  ZINC000482139334    0.1400
     18 C18        -7.5570    1.8674   53.4915 C.3     1  ZINC000482139334   -0.1200
     19 C19        -8.3617    1.7829   52.1984 C.3     1  ZINC000482139334   -0.0500
     20 C20        -8.5462    3.0137   51.2950 C.3     1  ZINC000482139334   -0.0700
     21 C21       -10.0785    3.2093   51.3181 C.3     1  ZINC000482139334   -0.0900
     22 C22       -10.6500    1.8385   51.6134 C.ar    1  ZINC000482139334   -0.0800
     23 C23       -11.9342    1.3483   51.4503 C.ar    1  ZINC000482139334   -0.1100
     24 C24       -12.2305    0.0437   51.7946 C.ar    1  ZINC000482139334   -0.1100
     25 C25       -11.2414   -0.7761   52.3043 C.ar    1  ZINC000482139334   -0.1200
     26 C26        -9.9591   -0.2897   52.4679 C.ar    1  ZINC000482139334   -0.1000
     27 C27        -9.6590    1.0174   52.1233 C.ar    1  ZINC000482139334   -0.0700
     28 H28        -5.1198    2.7073   53.0931 H       1  ZINC000482139334    0.4400
     29 H29        -0.3636    4.9253   49.1312 H       1  ZINC000482139334    0.1300
     30 H30         0.8815    4.7727   47.0151 H       1  ZINC000482139334    0.1400
     31 H31         0.2413    3.1073   45.3222 H       1  ZINC000482139334    0.1400
     32 H32        -1.6468    1.5846   45.7341 H       1  ZINC000482139334    0.1400
     33 H33        -1.4316    5.0104   50.9699 H       1  ZINC000482139334    0.2200
     34 H34        -7.9224    1.3031   54.3494 H       1  ZINC000482139334    0.1200
     35 H35        -7.0741    2.8167   53.7236 H       1  ZINC000482139334    0.1100
     36 H36        -8.0379    3.8822   51.7138 H       1  ZINC000482139334    0.0800
     37 H37        -8.1965    2.8084   50.2832 H       1  ZINC000482139334    0.0900
     38 H38       -10.3579    3.9124   52.1027 H       1  ZINC000482139334    0.0800
     39 H39       -10.4289    3.5641   50.3489 H       1  ZINC000482139334    0.0800
     40 H40       -12.7078    1.9885   51.0525 H       1  ZINC000482139334    0.1200
     41 H41       -13.2337   -0.3348   51.6660 H       1  ZINC000482139334    0.1300
     42 H42       -11.4712   -1.7962   52.5747 H       1  ZINC000482139334    0.1300
     43 H43        -9.1873   -0.9313   52.8667 H       1  ZINC000482139334    0.1200
@<TRIPOS>BOND
     1     1     2    2
     2     2     3   am
     3     2    16    1
     4     3     4    1
     5     3    28    1
     6     4    15    1
     7     4     5    2
     8     5     6    1
     9     6     7    1
    10     6    14    2
    11     7    12   ar
    12     7     8   ar
    13     8     9   ar
    14     8    29    1
    15     9    10   ar
    16     9    30    1
    17    10    11   ar
    18    10    31    1
    19    11    12   ar
    20    11    32    1
    21    12    13    1
    22    14    15    1
    23    14    33    1
    24    16    17    1
    25    16    19    1
    26    16    18    1
    27    18    19    1
    28    18    34    1
    29    18    35    1
    30    19    27    1
    31    19    20    1
    32    20    21    1
    33    20    36    1
    34    20    37    1
    35    21    22    1
    36    21    38    1
    37    21    39    1
    38    22    27   ar
    39    22    23   ar
    40    23    24   ar
    41    23    40    1
    42    24    25   ar
    43    24    41    1
    44    25    26   ar
    45    25    42    1
    46    26    27   ar
    47    26    43    1
@<TRIPOS>SUBSTRUCTURE
     1 ZINC000482139334        1 TEMP              0 ****  ****    0 ROOT


##########                                Name:    ZINC000252489163
##########                DOCK_Rotatable_Bonds:                   6
##########                         Heavy_Atoms:                  25
##########                    Molecular_Weight:             379.403
##########                DOCK_Rotatable_Bonds:                   6
##########                       Formal_Charge:          0.00999963
##########                     HBond_Acceptors:                  10
##########                        HBond_Donors:                   2
##########                         Heavy_Atoms:                  25
##########                          Grid_Score:          -27.754051
##########                     Grid_vdw_energy:          -27.481413
##########                      Grid_es_energy:           -0.272638
##########           Internal_energy_repulsive:           11.590942

@<TRIPOS>MOLECULE
ZINC000252489163
 45 46 1 0 0
SMALL
USER_CHARGES


@<TRIPOS>ATOM
      1 C1         -6.4069    1.2302   51.0395 C.3     1  ZINC000252489163   -0.1100
      2 C2         -5.3298    2.2836   51.0772 C.ar    1  ZINC000252489163   -0.0600
      3 C3         -4.2696    2.2178   50.1949 C.ar    1  ZINC000252489163   -0.1300
      4 C4         -3.2776    3.1892   50.2300 C.ar    1  ZINC000252489163    0.1700
      5 N5         -2.2020    3.1256   49.3369 N.am    1  ZINC000252489163   -0.6800
      6 C6         -0.9841    2.7492   49.7744 C.2     1  ZINC000252489163    0.7100
      7 O7         -0.8198    2.4647   50.9451 O.2     1  ZINC000252489163   -0.5500
      8 N8          0.0517    2.6880   48.9142 N.am    1  ZINC000252489163   -0.6200
      9 C9         -0.1312    3.0286   47.4967 C.3     1  ZINC000252489163    0.1000
     10 C10         0.3797    1.8658   46.6403 C.3     1  ZINC000252489163   -0.1400
     11 C11         1.8255    1.5482   47.0289 C.3     1  ZINC000252489163   -0.1300
     12 C12         1.8794    1.1255   48.4988 C.3     1  ZINC000252489163    0.1400
     13 H13         1.2418    0.2546   48.6505 H       1  ZINC000252489163    0.0900
     14 N14         3.2589    0.7908   48.8612 N.am    1  ZINC000252489163   -1.1100
     15 S15         3.8110   -0.7594   48.6749 S.o2    1  ZINC000252489163    2.6100
     16 C16         2.7241   -1.7570   49.7304 C.3     1  ZINC000252489163   -0.6700
     17 O17         3.5794   -1.0514   47.3036 O.2     1  ZINC000252489163   -0.9500
     18 O18         5.1291   -0.7279   49.2048 O.2     1  ZINC000252489163   -0.9500
     19 C19         1.3866    2.2854   49.3774 C.3     1  ZINC000252489163    0.1100
     20 C20        -3.3554    4.2237   51.1527 C.ar    1  ZINC000252489163   -0.1000
     21 C21        -4.4186    4.2839   52.0326 C.ar    1  ZINC000252489163   -0.1600
     22 C22        -4.5039    5.4065   53.0345 C.3     1  ZINC000252489163    0.5100
     23 F23        -5.8220    5.8698   53.1045 F       1  ZINC000252489163   -0.1700
     24 F24        -4.1060    4.9403   54.2921 F       1  ZINC000252489163   -0.1800
     25 F25        -3.6627    6.4513   52.6369 F       1  ZINC000252489163   -0.1800
     26 C26        -5.4073    3.3183   51.9916 C.ar    1  ZINC000252489163   -0.0900
     27 H27        -7.1926    1.5385   50.3497 H       1  ZINC000252489163    0.0800
     28 H28        -5.9794    0.2853   50.7044 H       1  ZINC000252489163    0.0700
     29 H29        -6.8278    1.1051   52.0372 H       1  ZINC000252489163    0.0700
     30 H30        -4.2116    1.4117   49.4785 H       1  ZINC000252489163    0.1300
     31 H31        -2.3330    3.3525   48.4029 H       1  ZINC000252489163    0.4100
     32 H32        -1.1894    3.1941   47.2943 H       1  ZINC000252489163    0.0800
     33 H33         0.4333    3.9310   47.2620 H       1  ZINC000252489163    0.0800
     34 H34        -0.2437    0.9879   46.8095 H       1  ZINC000252489163    0.0700
     35 H35         0.3389    2.1442   45.5872 H       1  ZINC000252489163    0.0900
     36 H36         2.1997    0.7373   46.4039 H       1  ZINC000252489163    0.0800
     37 H37         2.4438    2.4339   46.8829 H       1  ZINC000252489163    0.0800
     38 H38         3.8488    1.4771   49.2101 H       1  ZINC000252489163    0.4200
     39 H39         1.6928   -1.6492   49.3947 H       1  ZINC000252489163    0.1300
     40 H40         3.0189   -2.8044   49.6684 H       1  ZINC000252489163    0.1300
     41 H41         2.8076   -1.4166   50.7625 H       1  ZINC000252489163    0.1300
     42 H42         2.0767    3.1251   49.2948 H       1  ZINC000252489163    0.0800
     43 H43         1.3286    1.9583   50.4156 H       1  ZINC000252489163    0.1100
     44 H44        -2.5854    4.9804   51.1827 H       1  ZINC000252489163    0.1800
     45 H45        -6.2377    3.3678   52.6804 H       1  ZINC000252489163    0.1300
@<TRIPOS>BOND
     1     1     2    1
     2     1    27    1
     3     1    28    1
     4     1    29    1
     5     2    26   ar
     6     2     3   ar
     7     3     4   ar
     8     3    30    1
     9     4     5    1
    10     4    20   ar
    11     5     6   am
    12     5    31    1
    13     6     7    2
    14     6     8   am
    15     8    19    1
    16     8     9    1
    17     9    10    1
    18     9    32    1
    19     9    33    1
    20    10    11    1
    21    10    34    1
    22    10    35    1
    23    11    12    1
    24    11    36    1
    25    11    37    1
    26    12    13    1
    27    12    14    1
    28    12    19    1
    29    14    15   am
    30    14    38    1
    31    15    16    1
    32    15    17    2
    33    15    18    2
    34    16    39    1
    35    16    40    1
    36    16    41    1
    37    19    42    1
    38    19    43    1
    39    20    21   ar
    40    20    44    1
    41    21    22    1
    42    21    26   ar
    43    22    23    1
    44    22    24    1
    45    22    25    1
    46    26    45    1
@<TRIPOS>SUBSTRUCTURE
     1 ZINC000252489163        1 TEMP              0 ****  ****    0 ROOT


##########                                Name:    ZINC000546115054
##########                DOCK_Rotatable_Bonds:                  10
##########                         Heavy_Atoms:                  26
##########                    Molecular_Weight:             363.457
##########                DOCK_Rotatable_Bonds:                  10
##########                       Formal_Charge:        -4.39584e-07
##########                     HBond_Acceptors:                   7
##########                        HBond_Donors:                   2
##########                         Heavy_Atoms:                  26
##########                          Grid_Score:          -27.725845
##########                     Grid_vdw_energy:          -28.962816
##########                      Grid_es_energy:            1.236970
##########           Internal_energy_repulsive:           32.729580

@<TRIPOS>MOLECULE
ZINC000546115054
 55 56 1 0 0
SMALL
USER_CHARGES


@<TRIPOS>ATOM
      1 C1         -6.3882    1.0452   50.9885 C.3     1  ZINC000546115054   -0.1500
      2 C2         -5.6301    2.2026   50.3353 C.3     1  ZINC000546115054    0.0600
      3 O3         -4.2238    1.9813   50.4597 O.3     1  ZINC000546115054   -0.3700
      4 C4         -3.4224    3.0933   50.0556 C.3     1  ZINC000546115054    0.0500
      5 H5         -4.0683    3.9052   49.7210 H       1  ZINC000546115054    0.0700
      6 C6         -2.4990    2.6692   48.9106 C.3     1  ZINC000546115054    0.0400
      7 O7         -1.6583    3.7662   48.5471 O.3     1  ZINC000546115054   -0.3700
      8 C8         -0.8062    4.2220   49.5998 C.3     1  ZINC000546115054    0.0600
      9 C9         -1.6616    4.7084   50.7725 C.3     1  ZINC000546115054   -0.1600
     10 C10        -2.5733    3.5689   51.2384 C.3     1  ZINC000546115054    0.1700
     11 H11        -1.9650    2.7418   51.6046 H       1  ZINC000546115054    0.1000
     12 N12        -3.4468    4.0481   52.3123 N.am    1  ZINC000546115054   -0.7300
     13 C13        -3.1495    3.7704   53.5973 C.2     1  ZINC000546115054    0.7200
     14 O14        -2.1571    3.1210   53.8650 O.2     1  ZINC000546115054   -0.5900
     15 N15        -3.9524    4.2126   54.5854 N.am    1  ZINC000546115054   -0.7200
     16 C16        -3.6301    3.9092   55.9820 C.3     1  ZINC000546115054    0.1600
     17 H17        -3.2411    2.8934   56.0527 H       1  ZINC000546115054    0.1200
     18 C18        -2.5756    4.8956   56.4879 C.3     1  ZINC000546115054   -0.1000
     19 C19        -1.6211    4.1815   57.4099 C.ar    1  ZINC000546115054   -0.0800
     20 C20        -1.0128    3.0090   57.0019 C.ar    1  ZINC000546115054   -0.1100
     21 C21        -0.1374    2.3541   57.8476 C.ar    1  ZINC000546115054   -0.1200
     22 C22         0.1301    2.8714   59.1012 C.ar    1  ZINC000546115054   -0.1200
     23 C23        -0.4774    4.0442   59.5089 C.ar    1  ZINC000546115054   -0.1200
     24 C24        -1.3496    4.7017   58.6616 C.ar    1  ZINC000546115054   -0.1100
     25 C25        -4.8751    4.0300   56.8225 C.2     1  ZINC000546115054    0.5000
     26 O26        -5.1623    3.1537   57.6102 O.2     1  ZINC000546115054   -0.5200
     27 N27        -5.6694    5.1119   56.6988 N.am    1  ZINC000546115054   -0.6200
     28 C28        -5.3233    6.1695   55.7461 C.3     1  ZINC000546115054    0.0800
     29 C29        -6.8787    5.2300   57.5172 C.3     1  ZINC000546115054    0.0700
     30 H30        -7.4609    1.2140   50.8937 H       1  ZINC000546115054    0.0700
     31 H31        -6.1222    0.1113   50.4935 H       1  ZINC000546115054    0.0600
     32 H32        -6.1217    0.9859   52.0438 H       1  ZINC000546115054    0.0600
     33 H33        -5.8967    2.2620   49.2801 H       1  ZINC000546115054    0.0500
     34 H34        -5.8961    3.1366   50.8304 H       1  ZINC000546115054    0.0500
     35 H35        -1.8825    1.8299   49.2325 H       1  ZINC000546115054    0.0600
     36 H36        -3.0992    2.3708   48.0510 H       1  ZINC000546115054    0.1000
     37 H37        -0.1675    3.4030   49.9309 H       1  ZINC000546115054    0.0600
     38 H38        -0.1868    5.0421   49.2368 H       1  ZINC000546115054    0.1000
     39 H39        -1.0136    5.0152   51.5935 H       1  ZINC000546115054    0.0900
     40 H40        -2.2710    5.5537   50.4528 H       1  ZINC000546115054    0.0800
     41 H41        -4.2392    4.5650   52.0987 H       1  ZINC000546115054    0.3900
     42 H42        -4.7434    4.7317   54.3719 H       1  ZINC000546115054    0.4000
     43 H43        -2.0249    5.3047   55.6410 H       1  ZINC000546115054    0.0900
     44 H44        -3.0653    5.7055   57.0284 H       1  ZINC000546115054    0.1100
     45 H45        -1.2219    2.6049   56.0224 H       1  ZINC000546115054    0.1200
     46 H46         0.3373    1.4377   57.5291 H       1  ZINC000546115054    0.1200
     47 H47         0.8136    2.3592   59.7622 H       1  ZINC000546115054    0.1200
     48 H48        -0.2686    4.4483   60.4885 H       1  ZINC000546115054    0.1200
     49 H49        -1.8243    5.6180   58.9801 H       1  ZINC000546115054    0.1200
     50 H50        -5.7784    5.9514   54.7800 H       1  ZINC000546115054    0.0600
     51 H51        -5.6940    7.1260   56.1147 H       1  ZINC000546115054    0.0700
     52 H52        -4.2401    6.2181   55.6349 H       1  ZINC000546115054    0.0800
     53 H53        -6.6378    5.7398   58.4501 H       1  ZINC000546115054    0.0600
     54 H54        -7.6305    5.8025   56.9740 H       1  ZINC000546115054    0.0800
     55 H55        -7.2677    4.2358   57.7366 H       1  ZINC000546115054    0.0700
@<TRIPOS>BOND
     1     1     2    1
     2     1    30    1
     3     1    31    1
     4     1    32    1
     5     2     3    1
     6     2    33    1
     7     2    34    1
     8     3     4    1
     9     4     5    1
    10     4    10    1
    11     4     6    1
    12     6     7    1
    13     6    35    1
    14     6    36    1
    15     7     8    1
    16     8     9    1
    17     8    37    1
    18     8    38    1
    19     9    10    1
    20     9    39    1
    21     9    40    1
    22    10    11    1
    23    10    12    1
    24    12    13   am
    25    12    41    1
    26    13    14    2
    27    13    15   am
    28    15    16    1
    29    15    42    1
    30    16    17    1
    31    16    18    1
    32    16    25    1
    33    18    19    1
    34    18    43    1
    35    18    44    1
    36    19    24   ar
    37    19    20   ar
    38    20    21   ar
    39    20    45    1
    40    21    22   ar
    41    21    46    1
    42    22    23   ar
    43    22    47    1
    44    23    24   ar
    45    23    48    1
    46    24    49    1
    47    25    26    2
    48    25    27   am
    49    27    28    1
    50    27    29    1
    51    28    50    1
    52    28    51    1
    53    28    52    1
    54    29    53    1
    55    29    54    1
    56    29    55    1
@<TRIPOS>SUBSTRUCTURE
     1 ZINC000546115054        1 TEMP              0 ****  ****    0 ROOT


##########                                Name:    ZINC000928803822
##########                DOCK_Rotatable_Bonds:                   7
##########                         Heavy_Atoms:                  21
##########                    Molecular_Weight:             364.165
##########                DOCK_Rotatable_Bonds:                   7
##########                       Formal_Charge:         -0.00999978
##########                     HBond_Acceptors:                   7
##########                        HBond_Donors:                   1
##########                         Heavy_Atoms:                  21
##########                          Grid_Score:          -27.681334
##########                     Grid_vdw_energy:          -25.957561
##########                      Grid_es_energy:           -1.723772
##########           Internal_energy_repulsive:            9.492603

@<TRIPOS>MOLECULE
ZINC000928803822
 34 34 1 0 0
SMALL
USER_CHARGES


@<TRIPOS>ATOM
      1 C1         -6.3793    0.8669   50.7483 C.3     1  ZINC000928803822    0.0900
      2 N2         -5.8929    2.2278   50.9882 N.pl3   1  ZINC000928803822   -0.6300
      3 C3         -6.8413    3.3008   51.2970 C.3     1  ZINC000928803822    0.0900
      4 C4         -4.5247    2.5023   50.9225 C.ar    1  ZINC000928803822    0.2200
      5 C5         -3.8518    2.3941   49.7114 C.ar    1  ZINC000928803822   -0.1500
      6 C6         -2.4970    2.6648   49.6412 C.ar    1  ZINC000928803822   -0.0500
      7 Br7        -1.5903    2.5154   47.9886 Br      1  ZINC000928803822   -0.0400
      8 C8         -1.8049    3.0442   50.7742 C.ar    1  ZINC000928803822   -0.1200
      9 C9         -2.4722    3.1557   51.9952 C.ar    1  ZINC000928803822   -0.0800
     10 C10        -1.7334    3.5618   53.2099 C.2     1  ZINC000928803822    0.5700
     11 O11        -0.7234    4.2310   53.1118 O.2     1  ZINC000928803822   -0.5100
     12 N12        -2.1799    3.1901   54.4261 N.am    1  ZINC000928803822   -0.7200
     13 C13        -1.4470    3.5910   55.6295 C.3     1  ZINC000928803822    0.1100
     14 H14        -0.4210    3.8445   55.3625 H       1  ZINC000928803822    0.1400
     15 C15        -1.4422    2.4355   56.6323 C.3     1  ZINC000928803822   -0.0300
     16 C16        -0.5036    2.7380   57.7250 C.1     1  ZINC000928803822    0.2000
     17 N17         0.2209    2.9714   58.5684 N.1     1  ZINC000928803822   -0.4000
     18 C18        -2.1262    4.8092   56.2583 C.3     1  ZINC000928803822    0.4400
     19 F19        -1.2558    5.4063   57.1763 F       1  ZINC000928803822   -0.1800
     20 F20        -2.4515    5.7304   55.2569 F       1  ZINC000928803822   -0.1700
     21 F21        -3.2925    4.4048   56.9165 F       1  ZINC000928803822   -0.1600
     22 C22        -3.8392    2.8883   52.0646 C.ar    1  ZINC000928803822   -0.1200
     23 H23        -6.5899    0.7381   49.6867 H       1  ZINC000928803822    0.0600
     24 H24        -5.6190    0.1495   51.0575 H       1  ZINC000928803822    0.0700
     25 H25        -7.2908    0.7003   51.3224 H       1  ZINC000928803822    0.0700
     26 H26        -6.9865    3.3581   52.3757 H       1  ZINC000928803822    0.0500
     27 H27        -6.4478    4.2497   50.9323 H       1  ZINC000928803822    0.0700
     28 H28        -7.7954    3.0931   50.8125 H       1  ZINC000928803822    0.0700
     29 H29        -4.3881    2.0973   48.8222 H       1  ZINC000928803822    0.1400
     30 H30        -0.7471    3.2545   50.7156 H       1  ZINC000928803822    0.1300
     31 H31        -2.9866    2.6571   54.5044 H       1  ZINC000928803822    0.4100
     32 H32        -2.4445    2.3042   57.0402 H       1  ZINC000928803822    0.1400
     33 H33        -1.1317    1.5194   56.1297 H       1  ZINC000928803822    0.1300
     34 H34        -4.3605    2.9729   53.0066 H       1  ZINC000928803822    0.1500
@<TRIPOS>BOND
     1     1     2    1
     2     1    23    1
     3     1    24    1
     4     1    25    1
     5     2     3    1
     6     2     4    1
     7     3    26    1
     8     3    27    1
     9     3    28    1
    10     4    22   ar
    11     4     5   ar
    12     5     6   ar
    13     5    29    1
    14     6     7    1
    15     6     8   ar
    16     8     9   ar
    17     8    30    1
    18     9    10    1
    19     9    22   ar
    20    10    11    2
    21    10    12   am
    22    12    13    1
    23    12    31    1
    24    13    14    1
    25    13    15    1
    26    13    18    1
    27    15    16    1
    28    15    32    1
    29    15    33    1
    30    16    17    3
    31    18    19    1
    32    18    20    1
    33    18    21    1
    34    22    34    1
@<TRIPOS>SUBSTRUCTURE
     1 ZINC000928803822        1 TEMP              0 ****  ****    0 ROOT


##########                                Name:    ZINC000464752079
##########                DOCK_Rotatable_Bonds:                   7
##########                         Heavy_Atoms:                  29
##########                    Molecular_Weight:             404.413
##########                DOCK_Rotatable_Bonds:                   7
##########                       Formal_Charge:         7.45058e-08
##########                     HBond_Acceptors:                   8
##########                        HBond_Donors:                   1
##########                         Heavy_Atoms:                  29
##########                          Grid_Score:          -27.615166
##########                     Grid_vdw_energy:          -28.465372
##########                      Grid_es_energy:            0.850206
##########           Internal_energy_repulsive:           15.502714

@<TRIPOS>MOLECULE
ZINC000464752079
 51 54 1 0 0
SMALL
USER_CHARGES


@<TRIPOS>ATOM
      1 C1         -9.5014    2.6987   54.7685 C.3     1  ZINC000464752079   -0.1200
      2 C2         -9.4022    3.3141   53.3964 C.ar    1  ZINC000464752079   -0.0800
      3 C3        -10.1769    4.4123   53.0740 C.ar    1  ZINC000464752079   -0.1200
      4 C4        -10.0859    4.9768   51.8152 C.ar    1  ZINC000464752079   -0.1200
      5 C5         -9.2201    4.4432   50.8794 C.ar    1  ZINC000464752079   -0.1300
      6 C6         -8.4445    3.3451   51.2022 C.ar    1  ZINC000464752079   -0.0900
      7 C7         -8.5322    2.7834   52.4620 C.ar    1  ZINC000464752079   -0.0800
      8 C8         -7.6869    1.5865   52.8139 C.3     1  ZINC000464752079    0.2000
      9 H9         -7.4443    1.6037   53.8765 H       1  ZINC000464752079    0.0900
     10 C10        -8.4465    0.2880   52.4700 C.3     1  ZINC000464752079   -0.1200
     11 C11        -7.3265   -0.6347   51.9206 C.3     1  ZINC000464752079   -0.1300
     12 C12        -6.4227    0.3812   51.1786 C.3     1  ZINC000464752079    0.1000
     13 N13        -6.4504    1.5965   52.0186 N.am    1  ZINC000464752079   -0.6300
     14 C14        -5.5019    2.5536   52.0468 C.2     1  ZINC000464752079    0.7200
     15 O15        -5.6294    3.5142   52.7811 O.2     1  ZINC000464752079   -0.5700
     16 N16        -4.4123    2.4460   51.2609 N.am    1  ZINC000464752079   -0.7400
     17 C17        -3.3806    3.4855   51.2929 C.3     1  ZINC000464752079    0.1900
     18 C18        -2.2501    3.0996   50.3740 C.ar    1  ZINC000464752079   -0.1200
     19 C19        -2.5037    2.8346   49.0414 C.ar    1  ZINC000464752079   -0.0500
     20 C20        -1.4668    2.4792   48.1943 C.ar    1  ZINC000464752079    0.0100
     21 C21        -0.1673    2.3894   48.6867 C.ar    1  ZINC000464752079    0.0800
     22 C22         0.0846    2.6566   50.0224 C.ar    1  ZINC000464752079   -0.1800
     23 C23        -0.9558    3.0164   50.8654 C.ar    1  ZINC000464752079    0.1400
     24 O24        -0.7084    3.2790   52.1765 O.3     1  ZINC000464752079   -0.3100
     25 C25        -0.1455    4.5550   52.4875 C.3     1  ZINC000464752079    0.4100
     26 F26        -0.8896    5.5588   51.8582 F       1  ZINC000464752079   -0.2000
     27 F27        -0.1737    4.7523   53.8722 F       1  ZINC000464752079   -0.2000
     28 O28         0.6623    2.0264   47.6652 O.3     1  ZINC000464752079   -0.3000
     29 C29        -0.1988    1.4978   46.6394 C.3     1  ZINC000464752079    0.2100
     30 O30        -1.4511    2.1722   46.8633 O.3     1  ZINC000464752079   -0.3000
     31 H31        -8.7831    3.1774   55.4342 H       1  ZINC000464752079    0.0700
     32 H32       -10.5091    2.8411   55.1587 H       1  ZINC000464752079    0.0700
     33 H33        -9.2835    1.6326   54.7052 H       1  ZINC000464752079    0.0700
     34 H34       -10.8534    4.8293   53.8053 H       1  ZINC000464752079    0.1200
     35 H35       -10.6918    5.8346   51.5630 H       1  ZINC000464752079    0.1200
     36 H36        -9.1495    4.8837   49.8958 H       1  ZINC000464752079    0.1200
     37 H37        -7.7681    2.9279   50.4709 H       1  ZINC000464752079    0.1100
     38 H38        -8.8977   -0.1432   53.3637 H       1  ZINC000464752079    0.0900
     39 H39        -9.2020    0.4739   51.7066 H       1  ZINC000464752079    0.0800
     40 H40        -6.7851   -1.1184   52.7336 H       1  ZINC000464752079    0.0800
     41 H41        -7.7328   -1.3735   51.2298 H       1  ZINC000464752079    0.0900
     42 H42        -5.4052   -0.0019   51.1016 H       1  ZINC000464752079    0.0700
     43 H43        -6.8249    0.5940   50.1881 H       1  ZINC000464752079    0.0700
     44 H44        -4.3113    1.6801   50.6742 H       1  ZINC000464752079    0.4000
     45 H45        -3.8087    4.4325   50.9643 H       1  ZINC000464752079    0.0800
     46 H46        -3.0025    3.5910   52.3097 H       1  ZINC000464752079    0.0800
     47 H47        -3.5117    2.9044   48.6601 H       1  ZINC000464752079    0.1500
     48 H48         1.0917    2.5876   50.4064 H       1  ZINC000464752079    0.1500
     49 H49         0.8856    4.5927   52.1360 H       1  ZINC000464752079    0.1900
     50 H50         0.1929    1.7357   45.6504 H       1  ZINC000464752079    0.1400
     51 H51        -0.3176    0.4207   46.7566 H       1  ZINC000464752079    0.0900
@<TRIPOS>BOND
     1     1     2    1
     2     1    31    1
     3     1    32    1
     4     1    33    1
     5     2     7   ar
     6     2     3   ar
     7     3     4   ar
     8     3    34    1
     9     4     5   ar
    10     4    35    1
    11     5     6   ar
    12     5    36    1
    13     6     7   ar
    14     6    37    1
    15     7     8    1
    16     8     9    1
    17     8    13    1
    18     8    10    1
    19    10    11    1
    20    10    38    1
    21    10    39    1
    22    11    12    1
    23    11    40    1
    24    11    41    1
    25    12    13    1
    26    12    42    1
    27    12    43    1
    28    13    14   am
    29    14    15    2
    30    14    16   am
    31    16    17    1
    32    16    44    1
    33    17    18    1
    34    17    45    1
    35    17    46    1
    36    18    23   ar
    37    18    19   ar
    38    19    20   ar
    39    19    47    1
    40    20    30    1
    41    20    21   ar
    42    21    22   ar
    43    21    28    1
    44    22    23   ar
    45    22    48    1
    46    23    24    1
    47    24    25    1
    48    25    26    1
    49    25    27    1
    50    25    49    1
    51    28    29    1
    52    29    30    1
    53    29    50    1
    54    29    51    1
@<TRIPOS>SUBSTRUCTURE
     1 ZINC000464752079        1 TEMP              0 ****  ****    0 ROOT


##########                                Name:    ZINC001401207732
##########                DOCK_Rotatable_Bonds:                   8
##########                         Heavy_Atoms:                  23
##########                    Molecular_Weight:             337.446
##########                DOCK_Rotatable_Bonds:                   8
##########                       Formal_Charge:          -0.0199995
##########                     HBond_Acceptors:                   8
##########                        HBond_Donors:                   1
##########                         Heavy_Atoms:                  23
##########                          Grid_Score:          -27.608978
##########                     Grid_vdw_energy:          -26.827579
##########                      Grid_es_energy:           -0.781399
##########           Internal_energy_repulsive:           95.400726

@<TRIPOS>MOLECULE
ZINC001401207732
 46 47 1 0 0
SMALL
USER_CHARGES


@<TRIPOS>ATOM
      1 C1        -10.4753    4.4402   49.3242 C.3     1  ZINC001401207732   -0.0900
      2 C2        -10.6857    3.5612   50.5301 C.2     1  ZINC001401207732    0.1500
      3 C3         -9.6716    3.1658   51.3398 C.2     1  ZINC001401207732   -0.3000
      4 C4         -8.2549    3.5126   51.1839 C.2     1  ZINC001401207732    0.6100
      5 O5         -7.9003    4.2226   50.2614 O.2     1  ZINC001401207732   -0.5200
      6 N6         -7.3460    3.0450   52.0623 N.am    1  ZINC001401207732   -0.5900
      7 C7         -7.7730    2.1903   53.1729 C.3     1  ZINC001401207732    0.0700
      8 C8         -5.9311    3.3914   51.9066 C.3     1  ZINC001401207732    0.1400
      9 H9         -5.8271    4.1586   51.1394 H       1  ZINC001401207732    0.1100
     10 C10        -5.3866    3.9213   53.2347 C.3     1  ZINC001401207732   -0.1600
     11 C11        -5.1437    2.1464   51.4930 C.3     1  ZINC001401207732    0.0500
     12 N12        -4.6152    2.3303   50.1348 N.3     1  ZINC001401207732   -0.6800
     13 C13        -3.2574    2.8902   50.1697 C.3     1  ZINC001401207732    0.1500
     14 C14        -2.5349    2.5353   48.8956 C.2     1  ZINC001401207732    0.1800
     15 N15        -1.2784    2.7844   48.6152 N.2     1  ZINC001401207732   -0.4800
     16 C16        -1.0786    2.2910   47.3800 C.2     1  ZINC001401207732    0.1800
     17 C17         0.2120    2.3282   46.6027 C.3     1  ZINC001401207732   -0.0100
     18 C18         0.1049    3.3686   45.4860 C.3     1  ZINC001401207732   -0.1500
     19 C19         1.3614    2.7030   47.5403 C.3     1  ZINC001401207732   -0.1500
     20 N20        -2.2028    1.7766   46.9798 N.2     1  ZINC001401207732   -0.3800
     21 O21        -3.0507    1.9015   47.8382 O.3     1  ZINC001401207732    0.0900
     22 S22       -10.3602    2.1545   52.6080 S.3     1  ZINC001401207732    0.1800
     23 C23       -11.9206    2.3667   51.9428 C.2     1  ZINC001401207732    0.0100
     24 N24       -11.8632    3.1138   50.8874 N.2     1  ZINC001401207732   -0.4800
     25 H25       -10.2840    3.8179   48.4499 H       1  ZINC001401207732    0.0800
     26 H26       -11.3676    5.0423   49.1533 H       1  ZINC001401207732    0.0800
     27 H27        -9.6220    5.0961   49.4971 H       1  ZINC001401207732    0.1000
     28 H28        -8.1179    2.8128   53.9987 H       1  ZINC001401207732    0.0600
     29 H29        -8.5852    1.5431   52.8420 H       1  ZINC001401207732    0.0800
     30 H30        -6.9336    1.5793   53.5047 H       1  ZINC001401207732    0.0900
     31 H31        -4.3339    4.1791   53.1188 H       1  ZINC001401207732    0.0700
     32 H32        -5.9475    4.8083   53.5293 H       1  ZINC001401207732    0.0700
     33 H33        -5.4905    3.1542   54.0020 H       1  ZINC001401207732    0.0600
     34 H34        -5.8016    1.2775   51.5124 H       1  ZINC001401207732    0.0800
     35 H35        -4.3173    1.9920   52.1867 H       1  ZINC001401207732    0.0500
     36 H36        -5.2306    2.9086   49.5826 H       1  ZINC001401207732    0.3600
     37 H37        -2.7162    2.4778   51.0212 H       1  ZINC001401207732    0.1100
     38 H38        -3.3139    3.9745   50.2655 H       1  ZINC001401207732    0.0800
     39 H39         0.4028    1.3470   46.1680 H       1  ZINC001401207732    0.1000
     40 H40         1.0383    3.3955   44.9238 H       1  ZINC001401207732    0.0700
     41 H41        -0.7140    3.1016   44.8180 H       1  ZINC001401207732    0.0600
     42 H42        -0.0858    4.3498   45.9206 H       1  ZINC001401207732    0.0600
     43 H43         1.4377    1.9618   48.3359 H       1  ZINC001401207732    0.0600
     44 H44         2.2948    2.7299   46.9782 H       1  ZINC001401207732    0.0700
     45 H45         1.1707    3.6842   47.9750 H       1  ZINC001401207732    0.0600
     46 H46       -12.8256    1.9346   52.3437 H       1  ZINC001401207732    0.2000
@<TRIPOS>BOND
     1     1     2    1
     2     1    25    1
     3     1    26    1
     4     1    27    1
     5     2    24    1
     6     2     3    2
     7     3     4    1
     8     3    22    1
     9     4     5    2
    10     4     6   am
    11     6     7    1
    12     6     8    1
    13     7    28    1
    14     7    29    1
    15     7    30    1
    16     8     9    1
    17     8    10    1
    18     8    11    1
    19    10    31    1
    20    10    32    1
    21    10    33    1
    22    11    12    1
    23    11    34    1
    24    11    35    1
    25    12    13    1
    26    12    36    1
    27    13    14    1
    28    13    37    1
    29    13    38    1
    30    14    21    1
    31    14    15    2
    32    15    16    1
    33    16    17    1
    34    16    20    2
    35    17    18    1
    36    17    19    1
    37    17    39    1
    38    18    40    1
    39    18    41    1
    40    18    42    1
    41    19    43    1
    42    19    44    1
    43    19    45    1
    44    20    21    1
    45    22    23    1
    46    23    24    2
    47    23    46    1
@<TRIPOS>SUBSTRUCTURE
     1 ZINC001401207732        1 TEMP              0 ****  ****    0 ROOT


##########                                Name:    ZINC000506156755
##########                DOCK_Rotatable_Bonds:                   7
##########                         Heavy_Atoms:                  30
##########                    Molecular_Weight:             400.434
##########                DOCK_Rotatable_Bonds:                   7
##########                       Formal_Charge:          -0.0200001
##########                     HBond_Acceptors:                   6
##########                        HBond_Donors:                   1
##########                         Heavy_Atoms:                  30
##########                          Grid_Score:          -27.600866
##########                     Grid_vdw_energy:          -27.418486
##########                      Grid_es_energy:           -0.182381
##########           Internal_energy_repulsive:           16.394430

@<TRIPOS>MOLECULE
ZINC000506156755
 50 53 1 0 0
SMALL
USER_CHARGES


@<TRIPOS>ATOM
      1 C1         -9.6713    2.1201   54.2162 C.3     1  ZINC000506156755   -0.1600
      2 C2         -9.3971    1.2430   52.9930 C.3     1  ZINC000506156755    0.1900
      3 H3         -8.8844    0.3334   53.3057 H       1  ZINC000506156755    0.1000
      4 N4         -8.5554    1.9767   52.0447 N.am    1  ZINC000506156755   -0.7200
      5 C5         -7.4307    1.4106   51.5639 C.2     1  ZINC000506156755    0.5000
      6 O6         -7.1147    0.2944   51.9175 O.2     1  ZINC000506156755   -0.5200
      7 C7         -6.5658    2.1647   50.5870 C.3     1  ZINC000506156755    0.0900
      8 N8         -5.3369    2.5981   51.2563 N.am    1  ZINC000506156755   -0.5600
      9 C9         -5.2975    3.2080   52.4548 C.2     1  ZINC000506156755    0.5800
     10 O10        -6.2600    3.4823   53.1426 O.2     1  ZINC000506156755   -0.4600
     11 C11        -3.8864    3.4876   52.7947 C.ar    1  ZINC000506156755   -0.1400
     12 C12        -3.2503    4.0822   53.8721 C.ar    1  ZINC000506156755   -0.0400
     13 C13        -1.8681    4.1917   53.8795 C.ar    1  ZINC000506156755   -0.0900
     14 C14        -1.1218    3.7121   52.8200 C.ar    1  ZINC000506156755   -0.0900
     15 C15        -1.7448    3.1147   51.7349 C.ar    1  ZINC000506156755   -0.0400
     16 C16        -3.1250    2.9984   51.7137 C.ar    1  ZINC000506156755   -0.1400
     17 C17        -4.0991    2.4335   50.7561 C.2     1  ZINC000506156755    0.5800
     18 O18        -3.8274    1.9101   49.6944 O.2     1  ZINC000506156755   -0.4600
     19 C19       -10.7021    0.8818   52.3313 C.ar    1  ZINC000506156755   -0.1200
     20 C20       -11.3319    1.7901   51.5032 C.ar    1  ZINC000506156755   -0.0800
     21 C21       -12.5291    1.4592   50.8953 C.ar    1  ZINC000506156755   -0.1400
     22 C22       -13.0987    0.2187   51.1145 C.ar    1  ZINC000506156755   -0.0800
     23 C23       -12.4729   -0.6937   51.9420 C.ar    1  ZINC000506156755   -0.1900
     24 C24       -11.2690   -0.3661   52.5489 C.ar    1  ZINC000506156755    0.1300
     25 O25       -10.6512   -1.2618   53.3628 O.3     1  ZINC000506156755   -0.2500
     26 C26       -11.0057   -1.2823   54.6744 C.ar    1  ZINC000506156755    0.0800
     27 C27       -12.0217   -0.4559   55.1328 C.ar    1  ZINC000506156755   -0.1400
     28 C28       -12.3801   -0.4787   56.4667 C.ar    1  ZINC000506156755   -0.1000
     29 C29       -11.7272   -1.3239   57.3449 C.ar    1  ZINC000506156755   -0.1200
     30 C30       -10.7143   -2.1483   56.8907 C.ar    1  ZINC000506156755   -0.1000
     31 C31       -10.3559   -2.1337   55.5567 C.ar    1  ZINC000506156755   -0.1200
     32 H32        -8.7274    2.3814   54.6948 H       1  ZINC000506156755    0.0700
     33 H33       -10.1840    3.0297   53.9035 H       1  ZINC000506156755    0.0600
     34 H34       -10.2976    1.5742   54.9218 H       1  ZINC000506156755    0.0700
     35 H35        -8.8075    2.8700   51.7627 H       1  ZINC000506156755    0.4000
     36 H36        -6.3134    1.5152   49.7488 H       1  ZINC000506156755    0.1300
     37 H37        -7.1071    3.0370   50.2206 H       1  ZINC000506156755    0.1300
     38 H38        -3.8286    4.4591   54.7028 H       1  ZINC000506156755    0.1400
     39 H39        -1.3714    4.6554   54.7189 H       1  ZINC000506156755    0.1400
     40 H40        -0.0458    3.8035   52.8371 H       1  ZINC000506156755    0.1400
     41 H41        -1.1564    2.7413   50.9097 H       1  ZINC000506156755    0.1400
     42 H42       -10.8892    2.7601   51.3305 H       1  ZINC000506156755    0.1300
     43 H43       -13.0201    2.1712   50.2485 H       1  ZINC000506156755    0.1300
     44 H44       -14.0339   -0.0372   50.6389 H       1  ZINC000506156755    0.1300
     45 H45       -12.9184   -1.6624   52.1132 H       1  ZINC000506156755    0.1300
     46 H46       -12.5318    0.2046   54.4474 H       1  ZINC000506156755    0.1300
     47 H47       -13.1707    0.1646   56.8241 H       1  ZINC000506156755    0.1300
     48 H48       -12.0086   -1.3399   58.3875 H       1  ZINC000506156755    0.1300
     49 H49       -10.2059   -2.8076   57.5787 H       1  ZINC000506156755    0.1300
     50 H50        -9.5650   -2.7780   55.2024 H       1  ZINC000506156755    0.1300
@<TRIPOS>BOND
     1     1     2    1
     2     1    32    1
     3     1    33    1
     4     1    34    1
     5     2     3    1
     6     2     4    1
     7     2    19    1
     8     4     5   am
     9     4    35    1
    10     5     6    2
    11     5     7    1
    12     7     8    1
    13     7    36    1
    14     7    37    1
    15     8    17   am
    16     8     9   am
    17     9    10    2
    18     9    11    1
    19    11    16   ar
    20    11    12   ar
    21    12    13   ar
    22    12    38    1
    23    13    14   ar
    24    13    39    1
    25    14    15   ar
    26    14    40    1
    27    15    16   ar
    28    15    41    1
    29    16    17    1
    30    17    18    2
    31    19    24   ar
    32    19    20   ar
    33    20    21   ar
    34    20    42    1
    35    21    22   ar
    36    21    43    1
    37    22    23   ar
    38    22    44    1
    39    23    24   ar
    40    23    45    1
    41    24    25    1
    42    25    26    1
    43    26    31   ar
    44    26    27   ar
    45    27    28   ar
    46    27    46    1
    47    28    29   ar
    48    28    47    1
    49    29    30   ar
    50    29    48    1
    51    30    31   ar
    52    30    49    1
    53    31    50    1
@<TRIPOS>SUBSTRUCTURE
     1 ZINC000506156755        1 TEMP              0 ****  ****    0 ROOT


##########                                Name:    ZINC001284642199
##########                DOCK_Rotatable_Bonds:                   8
##########                         Heavy_Atoms:                  25
##########                    Molecular_Weight:             346.516
##########                DOCK_Rotatable_Bonds:                   8
##########                       Formal_Charge:         -3.8743e-07
##########                     HBond_Acceptors:                   5
##########                        HBond_Donors:                   2
##########                         Heavy_Atoms:                  25
##########                          Grid_Score:          -27.598930
##########                     Grid_vdw_energy:          -27.348866
##########                      Grid_es_energy:           -0.250064
##########           Internal_energy_repulsive:           16.895470

@<TRIPOS>MOLECULE
ZINC001284642199
 59 60 1 0 0
SMALL
USER_CHARGES


@<TRIPOS>ATOM
      1 C1         -9.6117   -0.0817   53.3244 C.3     1  ZINC001284642199   -0.1100
      2 C2         -8.5588    0.5687   52.4646 C.ar    1  ZINC001284642199   -0.1900
      3 C3         -7.5230   -0.1773   51.9245 C.ar    1  ZINC001284642199    0.1500
      4 N4         -6.6169    0.4281   51.1739 N.ar    1  ZINC001284642199   -0.4900
      5 C5         -6.6912    1.7227   50.9381 C.ar    1  ZINC001284642199    0.3100
      6 C6         -5.6383    2.3732   50.0781 C.3     1  ZINC001284642199    0.1300
      7 N7         -4.3067    2.0612   50.6145 N.3     1  ZINC001284642199   -0.6800
      8 C8         -3.2510    2.5174   49.7005 C.3     1  ZINC001284642199    0.0500
      9 C9         -2.4790    3.6691   50.3474 C.3     1  ZINC001284642199    0.1600
     10 H10        -3.0278    4.6000   50.2043 H       1  ZINC001284642199    0.1000
     11 N11        -2.3240    3.4090   51.7807 N.am    1  ZINC001284642199   -0.7200
     12 C12        -2.7308    4.3267   52.6800 C.2     1  ZINC001284642199    0.5200
     13 O13        -3.2265    5.3673   52.3028 O.2     1  ZINC001284642199   -0.5300
     14 C14        -2.5697    4.0598   54.1545 C.3     1  ZINC001284642199   -0.1100
     15 H15        -2.9361    3.0594   54.3847 H       1  ZINC001284642199    0.0900
     16 C16        -1.0905    4.1607   54.5324 C.3     1  ZINC001284642199   -0.1000
     17 C17        -0.9269    3.8897   56.0293 C.3     1  ZINC001284642199   -0.1100
     18 C18        -1.7281    4.9221   56.8250 C.3     1  ZINC001284642199   -0.0900
     19 H19        -1.3617    5.9225   56.5947 H       1  ZINC001284642199    0.0700
     20 C20        -1.5646    4.6511   58.3219 C.3     1  ZINC001284642199   -0.1500
     21 C21        -3.2073    4.8212   56.4471 C.3     1  ZINC001284642199   -0.1100
     22 C22        -3.3709    5.0922   54.9502 C.3     1  ZINC001284642199   -0.1100
     23 C23        -1.0986    3.7860   49.6981 C.3     1  ZINC001284642199   -0.0800
     24 C24        -1.2465    3.7523   48.1757 C.3     1  ZINC001284642199   -0.1400
     25 C25        -0.4474    5.1052   50.1183 C.3     1  ZINC001284642199   -0.1400
     26 C26        -0.2213    2.6172   50.1512 C.3     1  ZINC001284642199   -0.1300
     27 N27        -7.6587    2.4646   51.4387 N.ar    1  ZINC001284642199   -0.5100
     28 C28        -8.6031    1.9274   52.1943 C.ar    1  ZINC001284642199    0.1500
     29 H29        -9.2968   -0.0540   54.3676 H       1  ZINC001284642199    0.0800
     30 H30       -10.5534    0.4560   53.2148 H       1  ZINC001284642199    0.0700
     31 H31        -9.7462   -1.1175   53.0130 H       1  ZINC001284642199    0.0700
     32 H32        -7.4562   -1.2384   52.1142 H       1  ZINC001284642199    0.1700
     33 H33        -5.7859    3.4531   50.0775 H       1  ZINC001284642199    0.1000
     34 H34        -5.7172    1.9950   49.0589 H       1  ZINC001284642199    0.0600
     35 H35        -4.2166    1.0749   50.8075 H       1  ZINC001284642199    0.3400
     36 H36        -3.7004    2.8595   48.7682 H       1  ZINC001284642199    0.0900
     37 H37        -2.5683    1.6933   49.4938 H       1  ZINC001284642199    0.0400
     38 H38        -1.9287    2.5762   52.0826 H       1  ZINC001284642199    0.3900
     39 H39        -0.7240    5.1610   54.3020 H       1  ZINC001284642199    0.0700
     40 H40        -0.5196    3.4252   53.9655 H       1  ZINC001284642199    0.0700
     41 H41         0.1268    3.9615   56.2985 H       1  ZINC001284642199    0.0700
     42 H42        -1.2934    2.8893   56.2596 H       1  ZINC001284642199    0.0600
     43 H43        -0.5108    4.7230   58.5911 H       1  ZINC001284642199    0.0500
     44 H44        -2.1354    5.3866   58.8888 H       1  ZINC001284642199    0.0500
     45 H45        -1.9311    3.6508   58.5522 H       1  ZINC001284642199    0.0500
     46 H46        -3.5737    3.8209   56.6774 H       1  ZINC001284642199    0.0600
     47 H47        -3.7781    5.5567   57.0139 H       1  ZINC001284642199    0.0700
     48 H48        -3.0044    6.0926   54.7199 H       1  ZINC001284642199    0.0700
     49 H49        -4.4246    5.0204   54.6809 H       1  ZINC001284642199    0.0600
     50 H50        -1.8715    4.5850   47.8529 H       1  ZINC001284642199    0.0600
     51 H51        -0.2631    3.8355   47.7131 H       1  ZINC001284642199    0.0600
     52 H52        -1.7104    2.8125   47.8764 H       1  ZINC001284642199    0.0500
     53 H53        -0.3419    5.1292   51.2028 H       1  ZINC001284642199    0.0600
     54 H54         0.5361    5.1885   49.6556 H       1  ZINC001284642199    0.0600
     55 H55        -1.0723    5.9379   49.7954 H       1  ZINC001284642199    0.0600
     56 H56        -0.6851    1.6774   49.8520 H       1  ZINC001284642199    0.0500
     57 H57         0.7622    2.7005   49.6886 H       1  ZINC001284642199    0.0500
     58 H58        -0.1158    2.6412   51.2358 H       1  ZINC001284642199    0.0600
     59 H59        -9.3953    2.5403   52.5983 H       1  ZINC001284642199    0.1700
@<TRIPOS>BOND
     1     1     2    1
     2     1    29    1
     3     1    30    1
     4     1    31    1
     5     2    28   ar
     6     2     3   ar
     7     3     4   ar
     8     3    32    1
     9     4     5   ar
    10     5     6    1
    11     5    27   ar
    12     6     7    1
    13     6    33    1
    14     6    34    1
    15     7     8    1
    16     7    35    1
    17     8     9    1
    18     8    36    1
    19     8    37    1
    20     9    10    1
    21     9    11    1
    22     9    23    1
    23    11    12   am
    24    11    38    1
    25    12    13    2
    26    12    14    1
    27    14    15    1
    28    14    22    1
    29    14    16    1
    30    16    17    1
    31    16    39    1
    32    16    40    1
    33    17    18    1
    34    17    41    1
    35    17    42    1
    36    18    19    1
    37    18    20    1
    38    18    21    1
    39    20    43    1
    40    20    44    1
    41    20    45    1
    42    21    22    1
    43    21    46    1
    44    21    47    1
    45    22    48    1
    46    22    49    1
    47    23    24    1
    48    23    25    1
    49    23    26    1
    50    24    50    1
    51    24    51    1
    52    24    52    1
    53    25    53    1
    54    25    54    1
    55    25    55    1
    56    26    56    1
    57    26    57    1
    58    26    58    1
    59    27    28   ar
    60    28    59    1
@<TRIPOS>SUBSTRUCTURE
     1 ZINC001284642199        1 TEMP              0 ****  ****    0 ROOT


##########                                Name:    ZINC000643274279
##########                DOCK_Rotatable_Bonds:                   6
##########                         Heavy_Atoms:                  29
##########                    Molecular_Weight:             392.454
##########                DOCK_Rotatable_Bonds:                   6
##########                       Formal_Charge:         -0.00999939
##########                     HBond_Acceptors:                   6
##########                        HBond_Donors:                   2
##########                         Heavy_Atoms:                  29
##########                          Grid_Score:          -27.592916
##########                     Grid_vdw_energy:          -27.784819
##########                      Grid_es_energy:            0.191902
##########           Internal_energy_repulsive:            7.254657

@<TRIPOS>MOLECULE
ZINC000643274279
 53 56 1 0 0
SMALL
USER_CHARGES


@<TRIPOS>ATOM
      1 O1        -10.6833    0.8192   52.0888 O.2     1  ZINC000643274279   -0.4900
      2 C2        -10.4177    0.1713   53.0803 C.2     1  ZINC000643274279    0.5100
      3 N3         -9.2811    0.4170   53.7615 N.am    1  ZINC000643274279   -0.6400
      4 C4         -8.4054    1.4141   53.3231 C.ar    1  ZINC000643274279    0.1300
      5 C5         -8.2655    2.5865   54.0573 C.ar    1  ZINC000643274279   -0.1000
      6 C6         -7.4094    3.5846   53.6246 C.ar    1  ZINC000643274279   -0.1000
      7 C7         -6.6934    3.4169   52.4600 C.ar    1  ZINC000643274279   -0.0600
      8 C8         -5.8070    4.5374   51.9451 C.3     1  ZINC000643274279   -0.0900
      9 C9         -4.3476    4.1071   52.0391 C.3     1  ZINC000643274279   -0.1200
     10 C10        -3.9075    3.3534   50.7931 C.3     1  ZINC000643274279   -0.1100
     11 C11        -4.4953    1.9704   50.6687 C.3     1  ZINC000643274279   -0.1600
     12 C12        -6.0006    2.0563   50.5072 C.2     1  ZINC000643274279    0.4100
     13 O13        -6.5213    1.9799   49.4149 O.2     1  ZINC000643274279   -0.4400
     14 C14        -6.8069    2.2356   51.7273 C.ar    1  ZINC000643274279   -0.1300
     15 C15        -7.6731    1.2294   52.1593 C.ar    1  ZINC000643274279   -0.1000
     16 C16       -11.3537   -0.8942   53.5488 C.2     1  ZINC000643274279    0.5200
     17 O17       -11.1522   -2.0531   53.2501 O.2     1  ZINC000643274279   -0.5000
     18 N18       -12.4219   -0.5687   54.3032 N.am    1  ZINC000643274279   -0.5800
     19 C19       -12.7844    0.7927   54.7375 C.3     1  ZINC000643274279    0.0900
     20 C20       -14.3101    0.7323   54.9994 C.3     1  ZINC000643274279   -0.1400
     21 C21       -14.4660   -0.6870   55.6065 C.3     1  ZINC000643274279   -0.1200
     22 C22       -13.4224   -1.5118   54.8241 C.3     1  ZINC000643274279    0.1800
     23 H23       -13.9067   -2.0380   54.0015 H       1  ZINC000643274279    0.0900
     24 C24       -12.7571   -2.5022   55.7448 C.ar    1  ZINC000643274279   -0.1000
     25 C25       -13.1537   -3.8266   55.7364 C.ar    1  ZINC000643274279   -0.0900
     26 C26       -12.5455   -4.7365   56.5793 C.ar    1  ZINC000643274279   -0.1400
     27 C27       -11.5355   -4.3203   57.4345 C.ar    1  ZINC000643274279    0.1100
     28 O28       -10.9353   -5.2135   58.2644 O.3     1  ZINC000643274279   -0.5000
     29 C29       -11.1390   -2.9909   57.4407 C.ar    1  ZINC000643274279   -0.1400
     30 C30       -11.7471   -2.0859   56.5924 C.ar    1  ZINC000643274279   -0.0900
     31 H31        -9.0709   -0.0981   54.5560 H       1  ZINC000643274279    0.4200
     32 H32        -8.8280    2.7194   54.9697 H       1  ZINC000643274279    0.1400
     33 H33        -7.3034    4.4930   54.1989 H       1  ZINC000643274279    0.1400
     34 H34        -6.0572    4.7511   50.9060 H       1  ZINC000643274279    0.0800
     35 H35        -5.9626    5.4313   52.5490 H       1  ZINC000643274279    0.0800
     36 H36        -3.7224    4.9919   52.1597 H       1  ZINC000643274279    0.0800
     37 H37        -4.2216    3.4621   52.9087 H       1  ZINC000643274279    0.0700
     38 H38        -4.1971    3.9333   49.9167 H       1  ZINC000643274279    0.0700
     39 H39        -2.8208    3.2685   50.8049 H       1  ZINC000643274279    0.0800
     40 H40        -4.0664    1.4722   49.7993 H       1  ZINC000643274279    0.0900
     41 H41        -4.2601    1.3958   51.5647 H       1  ZINC000643274279    0.0900
     42 H42        -7.7750    0.3170   51.5904 H       1  ZINC000643274279    0.1300
     43 H43       -12.2525    1.0533   55.6525 H       1  ZINC000643274279    0.0800
     44 H44       -12.5629    1.5135   53.9504 H       1  ZINC000643274279    0.1000
     45 H45       -14.6146    1.4980   55.7129 H       1  ZINC000643274279    0.0900
     46 H46       -14.8701    0.8229   54.0687 H       1  ZINC000643274279    0.0800
     47 H47       -14.2360   -0.6782   56.6718 H       1  ZINC000643274279    0.0800
     48 H48       -15.4700   -1.0735   55.4307 H       1  ZINC000643274279    0.0900
     49 H49       -13.9401   -4.1502   55.0704 H       1  ZINC000643274279    0.1200
     50 H50       -12.8562   -5.7708   56.5729 H       1  ZINC000643274279    0.1300
     51 H51       -10.2338   -4.8331   58.8107 H       1  ZINC000643274279    0.3900
     52 H52       -10.3532   -2.6644   58.1059 H       1  ZINC000643274279    0.1300
     53 H53       -11.4386   -1.0510   56.5966 H       1  ZINC000643274279    0.1300
@<TRIPOS>BOND
     1     1     2    2
     2     2     3   am
     3     2    16    1
     4     3     4    1
     5     3    31    1
     6     4    15   ar
     7     4     5   ar
     8     5     6   ar
     9     5    32    1
    10     6     7   ar
    11     6    33    1
    12     7    14   ar
    13     7     8    1
    14     8     9    1
    15     8    34    1
    16     8    35    1
    17     9    10    1
    18     9    36    1
    19     9    37    1
    20    10    11    1
    21    10    38    1
    22    10    39    1
    23    11    12    1
    24    11    40    1
    25    11    41    1
    26    12    13    2
    27    12    14    1
    28    14    15   ar
    29    15    42    1
    30    16    17    2
    31    16    18   am
    32    18    22    1
    33    18    19    1
    34    19    20    1
    35    19    43    1
    36    19    44    1
    37    20    21    1
    38    20    45    1
    39    20    46    1
    40    21    22    1
    41    21    47    1
    42    21    48    1
    43    22    23    1
    44    22    24    1
    45    24    30   ar
    46    24    25   ar
    47    25    26   ar
    48    25    49    1
    49    26    27   ar
    50    26    50    1
    51    27    28    1
    52    27    29   ar
    53    28    51    1
    54    29    30   ar
    55    29    52    1
    56    30    53    1
@<TRIPOS>SUBSTRUCTURE
     1 ZINC000643274279        1 TEMP              0 ****  ****    0 ROOT


##########                                Name:    ZINC000151303733
##########                DOCK_Rotatable_Bonds:                   7
##########                         Heavy_Atoms:                  26
##########                    Molecular_Weight:             369.444
##########                DOCK_Rotatable_Bonds:                   7
##########                       Formal_Charge:        -1.93715e-07
##########                     HBond_Acceptors:                   7
##########                        HBond_Donors:                   2
##########                         Heavy_Atoms:                  26
##########                          Grid_Score:          -27.553389
##########                     Grid_vdw_energy:          -27.175856
##########                      Grid_es_energy:           -0.377533
##########           Internal_energy_repulsive:           11.487603

@<TRIPOS>MOLECULE
ZINC000151303733
 45 48 1 0 0
SMALL
USER_CHARGES


@<TRIPOS>ATOM
      1 C1        -13.4941   -1.1376   47.4132 C.3     1  ZINC000151303733   -0.1000
      2 C2        -14.6206   -0.4162   48.1072 C.2     1  ZINC000151303733   -0.1200
      3 C3        -15.7886   -0.1693   47.5128 C.2     1  ZINC000151303733   -0.2000
      4 S4        -16.8506    0.6852   48.6240 S.3     1  ZINC000151303733    0.1200
      5 C5        -15.6145    0.6611   49.8747 C.2     1  ZINC000151303733   -0.2400
      6 C6        -14.5236    0.0369   49.4156 C.2     1  ZINC000151303733    0.1200
      7 N7        -13.3650   -0.1378   50.1950 N.am    1  ZINC000151303733   -0.6400
      8 C8        -13.4702   -0.5291   51.4804 C.2     1  ZINC000151303733    0.5100
      9 O9        -14.5636   -0.7308   51.9655 O.2     1  ZINC000151303733   -0.5100
     10 C10       -12.2294   -0.7162   52.3150 C.3     1  ZINC000151303733    0.1000
     11 N11       -12.6073   -0.8873   53.7201 N.am    1  ZINC000151303733   -0.7100
     12 C12       -12.2510   -2.0057   54.3824 C.2     1  ZINC000151303733    0.5200
     13 O13       -11.6186   -2.8710   53.8148 O.2     1  ZINC000151303733   -0.5100
     14 C14       -12.6381   -2.1808   55.8282 C.3     1  ZINC000151303733    0.1600
     15 H15       -13.5982   -1.7013   56.0193 H       1  ZINC000151303733    0.1300
     16 C16       -11.5772   -1.5918   56.7239 C.ar    1  ZINC000151303733   -0.0900
     17 C17       -11.0678   -0.3230   56.8729 C.ar    1  ZINC000151303733   -0.0900
     18 C18       -10.0704   -0.0828   57.8036 C.ar    1  ZINC000151303733   -0.0800
     19 C19        -9.5844   -1.1162   58.5846 C.ar    1  ZINC000151303733   -0.1200
     20 C20       -10.0885   -2.3928   58.4431 C.ar    1  ZINC000151303733   -0.0400
     21 C21       -11.0936   -2.6426   57.5075 C.ar    1  ZINC000151303733   -0.1500
     22 C22       -11.8184   -3.8716   57.1313 C.2     1  ZINC000151303733    0.5600
     23 O23       -11.6344   -4.9659   57.6275 O.2     1  ZINC000151303733   -0.5100
     24 N24       -12.7123   -3.6080   56.1610 N.am    1  ZINC000151303733   -0.5700
     25 C25       -13.6101   -4.5849   55.5398 C.3     1  ZINC000151303733    0.0900
     26 C26       -14.6837   -5.2207   56.4254 C.3     1  ZINC000151303733   -0.1800
     27 C27       -15.0775   -4.1868   55.3686 C.3     1  ZINC000151303733   -0.1900
     28 H28       -13.5894   -2.2099   47.5842 H       1  ZINC000151303733    0.0700
     29 H29       -13.5375   -0.9351   46.3431 H       1  ZINC000151303733    0.0700
     30 H30       -12.5405   -0.7897   47.8105 H       1  ZINC000151303733    0.0600
     31 H31       -16.0436   -0.4511   46.5019 H       1  ZINC000151303733    0.1700
     32 H32       -15.7212    1.0820   50.8636 H       1  ZINC000151303733    0.2000
     33 H33       -12.4907    0.0236   49.8072 H       1  ZINC000151303733    0.4200
     34 H34       -11.6916   -1.6005   51.9732 H       1  ZINC000151303733    0.1100
     35 H35       -11.5889    0.1600   52.2152 H       1  ZINC000151303733    0.1100
     36 H36       -13.1141   -0.1957   54.1737 H       1  ZINC000151303733    0.4100
     37 H37       -11.4450    0.4856   56.2643 H       1  ZINC000151303733    0.1300
     38 H38        -9.6708    0.9137   57.9195 H       1  ZINC000151303733    0.1400
     39 H39        -8.8064   -0.9226   59.3082 H       1  ZINC000151303733    0.1400
     40 H40        -9.7065   -3.1966   59.0551 H       1  ZINC000151303733    0.1400
     41 H41       -13.1637   -5.2072   54.7642 H       1  ZINC000151303733    0.1400
     42 H42       -14.9435   -6.2616   56.2325 H       1  ZINC000151303733    0.1000
     43 H43       -14.7219   -4.9123   57.4701 H       1  ZINC000151303733    0.1300
     44 H44       -15.3748   -3.1981   55.7181 H       1  ZINC000151303733    0.1000
     45 H45       -15.5965   -4.5474   54.4805 H       1  ZINC000151303733    0.1000
@<TRIPOS>BOND
     1     1     2    1
     2     1    28    1
     3     1    29    1
     4     1    30    1
     5     2     6    1
     6     2     3    2
     7     3     4    1
     8     3    31    1
     9     4     5    1
    10     5     6    2
    11     5    32    1
    12     6     7    1
    13     7     8   am
    14     7    33    1
    15     8     9    2
    16     8    10    1
    17    10    11    1
    18    10    34    1
    19    10    35    1
    20    11    12   am
    21    11    36    1
    22    12    13    2
    23    12    14    1
    24    14    15    1
    25    14    24    1
    26    14    16    1
    27    16    21   ar
    28    16    17   ar
    29    17    18   ar
    30    17    37    1
    31    18    19   ar
    32    18    38    1
    33    19    20   ar
    34    19    39    1
    35    20    21   ar
    36    20    40    1
    37    21    22    1
    38    22    23    2
    39    22    24   am
    40    24    25    1
    41    25    27    1
    42    25    26    1
    43    25    41    1
    44    26    27    1
    45    26    42    1
    46    26    43    1
    47    27    44    1
    48    27    45    1
@<TRIPOS>SUBSTRUCTURE
     1 ZINC000151303733        1 TEMP              0 ****  ****    0 ROOT


##########                                Name:    ZINC000504860563
##########                DOCK_Rotatable_Bonds:                   6
##########                         Heavy_Atoms:                  25
##########                    Molecular_Weight:             370.786
##########                DOCK_Rotatable_Bonds:                   6
##########                       Formal_Charge:                0.01
##########                     HBond_Acceptors:                   9
##########                        HBond_Donors:                   0
##########                         Heavy_Atoms:                  25
##########                          Grid_Score:          -27.537025
##########                     Grid_vdw_energy:          -27.465855
##########                      Grid_es_energy:           -0.071171
##########           Internal_energy_repulsive:           12.659163

@<TRIPOS>MOLECULE
ZINC000504860563
 42 44 1 0 0
SMALL
USER_CHARGES


@<TRIPOS>ATOM
      1 O1          1.0856    1.5185   47.0044 O.2     1  ZINC000504860563   -0.5100
      2 C2          0.9948    2.2523   47.9691 C.2     1  ZINC000504860563    0.5700
      3 C3          2.1612    2.4578   48.8539 C.ar    1  ZINC000504860563    0.0500
      4 N4          2.9799    3.4816   48.6394 N.ar    1  ZINC000504860563   -0.4100
      5 C5          4.0271    3.6998   49.4025 C.ar    1  ZINC000504860563    0.0600
      6 C6          4.3217    2.8642   50.4699 C.ar    1  ZINC000504860563   -0.1000
      7 C7          3.4994    1.7838   50.7349 C.ar    1  ZINC000504860563   -0.1700
      8 C8          2.3923    1.5759   49.9154 C.ar    1  ZINC000504860563    0.1400
      9 O9          1.5573    0.5300   50.1368 O.3     1  ZINC000504860563   -0.2600
     10 C10         2.1319   -0.7778   50.0999 C.3     1  ZINC000504860563   -0.0100
     11 C11         2.2277   -1.2520   48.6483 C.3     1  ZINC000504860563    0.2800
     12 F12         3.2275   -0.5304   47.9871 F       1  ZINC000504860563   -0.1900
     13 F13         2.5421   -2.6150   48.6228 F       1  ZINC000504860563   -0.1900
     14 N14        -0.1676    2.8830   48.2291 N.am    1  ZINC000504860563   -0.6000
     15 C15        -1.3373    2.6842   47.3625 C.3     1  ZINC000504860563    0.0800
     16 C16        -2.5258    2.2558   48.2289 C.3     1  ZINC000504860563   -0.1500
     17 C17        -2.7364    3.2837   49.3430 C.3     1  ZINC000504860563    0.1600
     18 N18        -3.8928    2.8946   50.1538 N.pl3   1  ZINC000504860563   -0.3600
     19 C19        -4.2781    3.4671   51.3146 C.2     1  ZINC000504860563    0.0700
     20 C20        -5.3872    2.8212   51.7447 C.2     1  ZINC000504860563   -0.1900
     21 Cl21       -6.2773    3.1729   53.1931 Cl      1  ZINC000504860563   -0.0400
     22 C22        -5.6898    1.8200   50.8151 C.2     1  ZINC000504860563    0.0600
     23 N23        -4.7979    1.8668   49.8589 N.2     1  ZINC000504860563   -0.2800
     24 C24        -1.4893    3.3418   50.2283 C.3     1  ZINC000504860563   -0.1400
     25 C25        -0.2909    3.7777   49.3880 C.3     1  ZINC000504860563    0.1200
     26 H26         4.6690    4.5432   49.1951 H       1  ZINC000504860563    0.1700
     27 H27         5.1861    3.0554   51.0886 H       1  ZINC000504860563    0.1500
     28 H28         3.7086    1.1194   51.5603 H       1  ZINC000504860563    0.1500
     29 H29         3.1291   -0.7491   50.5392 H       1  ZINC000504860563    0.1000
     30 H30         1.5049   -1.4664   50.6664 H       1  ZINC000504860563    0.1000
     31 H31         1.2724   -1.0900   48.1494 H       1  ZINC000504860563    0.1300
     32 H32        -1.5754    3.6165   46.8506 H       1  ZINC000504860563    0.0700
     33 H33        -1.1209    1.9073   46.6291 H       1  ZINC000504860563    0.1600
     34 H34        -3.4231    2.1981   47.6127 H       1  ZINC000504860563    0.0900
     35 H35        -2.3223    1.2794   48.6686 H       1  ZINC000504860563    0.0700
     36 H36        -2.9151    4.2648   48.9028 H       1  ZINC000504860563    0.1100
     37 H37        -3.7887    4.2920   51.8111 H       1  ZINC000504860563    0.1800
     38 H38        -6.5187    1.1301   50.8747 H       1  ZINC000504860563    0.1900
     39 H39        -1.6491    4.0570   51.0351 H       1  ZINC000504860563    0.0900
     40 H40        -1.2956    2.3552   50.6490 H       1  ZINC000504860563    0.0800
     41 H41         0.6161    3.7250   49.9901 H       1  ZINC000504860563    0.1000
     42 H42        -0.4415    4.7994   49.0390 H       1  ZINC000504860563    0.0800
@<TRIPOS>BOND
     1     1     2    2
     2     2     3    1
     3     2    14   am
     4     3     8   ar
     5     3     4   ar
     6     4     5   ar
     7     5     6   ar
     8     5    26    1
     9     6     7   ar
    10     6    27    1
    11     7     8   ar
    12     7    28    1
    13     8     9    1
    14     9    10    1
    15    10    11    1
    16    10    29    1
    17    10    30    1
    18    11    12    1
    19    11    13    1
    20    11    31    1
    21    14    25    1
    22    14    15    1
    23    15    16    1
    24    15    32    1
    25    15    33    1
    26    16    17    1
    27    16    34    1
    28    16    35    1
    29    17    18    1
    30    17    24    1
    31    17    36    1
    32    18    23    1
    33    18    19    1
    34    19    20    2
    35    19    37    1
    36    20    21    1
    37    20    22    1
    38    22    23    2
    39    22    38    1
    40    24    25    1
    41    24    39    1
    42    24    40    1
    43    25    41    1
    44    25    42    1
@<TRIPOS>SUBSTRUCTURE
     1 ZINC000504860563        1 TEMP              0 ****  ****    0 ROOT


##########                                Name:    ZINC000441887161
##########                DOCK_Rotatable_Bonds:                   6
##########                         Heavy_Atoms:                  27
##########                    Molecular_Weight:             383.514
##########                DOCK_Rotatable_Bonds:                   6
##########                       Formal_Charge:          -0.0300002
##########                     HBond_Acceptors:                   6
##########                        HBond_Donors:                   1
##########                         Heavy_Atoms:                  27
##########                          Grid_Score:          -27.474798
##########                     Grid_vdw_energy:          -28.141581
##########                      Grid_es_energy:            0.666782
##########           Internal_energy_repulsive:           20.365139

@<TRIPOS>MOLECULE
ZINC000441887161
 52 54 1 0 0
SMALL
USER_CHARGES


@<TRIPOS>ATOM
      1 C1          4.6310   -1.8266   50.8143 C.3     1  ZINC000441887161   -0.1200
      2 C2          3.8769   -0.7147   50.1317 C.ar    1  ZINC000441887161   -0.0700
      3 C3          3.2101   -0.9583   48.9459 C.ar    1  ZINC000441887161   -0.1200
      4 C4          2.5182    0.0619   48.3197 C.ar    1  ZINC000441887161   -0.0900
      5 C5          2.4929    1.3251   48.8797 C.ar    1  ZINC000441887161   -0.1100
      6 C6          1.7392    2.4372   48.1970 C.3     1  ZINC000441887161    0.1900
      7 H7          1.3225    3.1084   48.9481 H       1  ZINC000441887161    0.1000
      8 C8          2.6923    3.2168   47.2890 C.3     1  ZINC000441887161    0.1000
      9 N9          3.3581    2.2905   46.3696 N.pl3   1  ZINC000441887161   -0.4600
     10 C10         2.9208    1.9274   45.1244 C.2     1  ZINC000441887161   -0.0500
     11 C11         3.8282    1.0644   44.6291 C.2     1  ZINC000441887161   -0.0200
     12 N12         4.7932    0.9049   45.5469 N.2     1  ZINC000441887161   -0.4900
     13 C13         4.5209    1.6402   46.5901 C.2     1  ZINC000441887161    0.1800
     14 N14         0.6537    1.8697   47.3932 N.am    1  ZINC000441887161   -1.1100
     15 S15        -0.6992    2.7702   47.0753 S.o2    1  ZINC000441887161    2.6900
     16 O16        -0.2442    3.9924   46.5109 O.2     1  ZINC000441887161   -0.9600
     17 O17        -1.6129    1.9030   46.4177 O.2     1  ZINC000441887161   -0.9500
     18 C18        -1.4296    3.1795   48.6256 C.ar    1  ZINC000441887161   -0.6800
     19 C19        -0.8954    4.1964   49.3943 C.ar    1  ZINC000441887161   -0.0300
     20 C20        -1.4684    4.5175   50.6108 C.ar    1  ZINC000441887161   -0.1300
     21 C21        -2.5758    3.8220   51.0581 C.ar    1  ZINC000441887161   -0.0200
     22 C22        -3.2002    4.1716   52.3844 C.3     1  ZINC000441887161   -0.1300
     23 C23        -3.1110    2.8056   50.2886 C.ar    1  ZINC000441887161   -0.1000
     24 C24        -4.3187    2.0474   50.7762 C.3     1  ZINC000441887161   -0.1200
     25 C25        -2.5405    2.4872   49.0707 C.ar    1  ZINC000441887161   -0.0100
     26 C26         3.1587    1.5685   50.0668 C.ar    1  ZINC000441887161   -0.0700
     27 C27         3.1308    2.9457   50.6778 C.3     1  ZINC000441887161   -0.1300
     28 C28         3.8472    0.5477   50.6947 C.ar    1  ZINC000441887161   -0.1200
     29 H29         3.9655   -2.3481   51.5023 H       1  ZINC000441887161    0.0700
     30 H30         5.0013   -2.5272   50.0660 H       1  ZINC000441887161    0.0700
     31 H31         5.4716   -1.4088   51.3684 H       1  ZINC000441887161    0.0700
     32 H32         3.2298   -1.9454   48.5081 H       1  ZINC000441887161    0.1200
     33 H33         1.9978   -0.1284   47.3926 H       1  ZINC000441887161    0.1200
     34 H34         2.1282    3.9536   46.7171 H       1  ZINC000441887161    0.1100
     35 H35         3.4403    3.7247   47.8979 H       1  ZINC000441887161    0.1000
     36 H36         2.0208    2.2674   44.6336 H       1  ZINC000441887161    0.1700
     37 H37         3.7861    0.5848   43.6624 H       1  ZINC000441887161    0.1600
     38 H38         5.1224    1.7116   47.4842 H       1  ZINC000441887161    0.2000
     39 H39         0.7275    0.9665   47.0473 H       1  ZINC000441887161    0.4200
     40 H40        -0.0301    4.7400   49.0447 H       1  ZINC000441887161    0.1300
     41 H41        -1.0505    5.3117   51.2117 H       1  ZINC000441887161    0.1300
     42 H42        -3.9654    4.9335   52.2361 H       1  ZINC000441887161    0.0800
     43 H43        -3.6538    3.2806   52.8186 H       1  ZINC000441887161    0.0800
     44 H44        -2.4328    4.5535   53.0578 H       1  ZINC000441887161    0.0700
     45 H45        -5.2244    2.5426   50.4257 H       1  ZINC000441887161    0.0800
     46 H46        -4.2888    1.0288   50.3896 H       1  ZINC000441887161    0.0700
     47 H47        -4.3167    2.0227   51.8659 H       1  ZINC000441887161    0.0700
     48 H48        -2.9586    1.6932   48.4697 H       1  ZINC000441887161    0.1400
     49 H49         2.2776    3.0271   51.3513 H       1  ZINC000441887161    0.0800
     50 H50         4.0516    3.1145   51.2360 H       1  ZINC000441887161    0.0700
     51 H51         3.0427    3.6919   49.8881 H       1  ZINC000441887161    0.0600
     52 H52         4.3673    0.7378   51.6220 H       1  ZINC000441887161    0.1300
@<TRIPOS>BOND
     1     1     2    1
     2     1    29    1
     3     1    30    1
     4     1    31    1
     5     2    28   ar
     6     2     3   ar
     7     3     4   ar
     8     3    32    1
     9     4     5   ar
    10     4    33    1
    11     5     6    1
    12     5    26   ar
    13     6     7    1
    14     6     8    1
    15     6    14    1
    16     8     9    1
    17     8    34    1
    18     8    35    1
    19     9    13    1
    20     9    10    1
    21    10    11    2
    22    10    36    1
    23    11    12    1
    24    11    37    1
    25    12    13    2
    26    13    38    1
    27    14    15   am
    28    14    39    1
    29    15    16    2
    30    15    17    2
    31    15    18    1
    32    18    25   ar
    33    18    19   ar
    34    19    20   ar
    35    19    40    1
    36    20    21   ar
    37    20    41    1
    38    21    22    1
    39    21    23   ar
    40    22    42    1
    41    22    43    1
    42    22    44    1
    43    23    24    1
    44    23    25   ar
    45    24    45    1
    46    24    46    1
    47    24    47    1
    48    25    48    1
    49    26    27    1
    50    26    28   ar
    51    27    49    1
    52    27    50    1
    53    27    51    1
    54    28    52    1
@<TRIPOS>SUBSTRUCTURE
     1 ZINC000441887161        1 TEMP              0 ****  ****    0 ROOT


##########                                Name:    ZINC000446721380
##########                DOCK_Rotatable_Bonds:                   8
##########                         Heavy_Atoms:                  26
##########                    Molecular_Weight:             419.318
##########                DOCK_Rotatable_Bonds:                   8
##########                       Formal_Charge:           0.0199992
##########                     HBond_Acceptors:                   5
##########                        HBond_Donors:                   2
##########                         Heavy_Atoms:                  26
##########                          Grid_Score:          -27.426184
##########                     Grid_vdw_energy:          -28.136564
##########                      Grid_es_energy:            0.710380
##########           Internal_energy_repulsive:           10.134789

@<TRIPOS>MOLECULE
ZINC000446721380
 49 51 1 0 0
SMALL
USER_CHARGES


@<TRIPOS>ATOM
      1 C1          1.0753    2.1331   46.0738 C.3     1  ZINC000446721380   -0.1200
      2 C2          0.0309    2.4593   47.1101 C.ar    1  ZINC000446721380   -0.0300
      3 C3         -1.3018    2.1957   46.8542 C.ar    1  ZINC000446721380   -0.1600
      4 C4         -2.2627    2.4939   47.8030 C.ar    1  ZINC000446721380   -0.0500
      5 C5         -1.8927    3.0560   49.0092 C.ar    1  ZINC000446721380   -0.1500
      6 C6         -2.9403    3.3802   50.0430 C.3     1  ZINC000446721380    0.1900
      7 N7         -4.0110    2.3823   49.9827 N.am    1  ZINC000446721380   -0.7300
      8 C8         -5.2027    2.6369   50.5587 C.2     1  ZINC000446721380    0.7100
      9 O9         -5.3894    3.6954   51.1270 O.2     1  ZINC000446721380   -0.5700
     10 N10        -6.1873    1.7182   50.5047 N.am    1  ZINC000446721380   -0.6900
     11 C11        -7.4250    1.9826   51.1030 C.ar    1  ZINC000446721380    0.2000
     12 C12        -8.0900    3.1700   50.8297 C.ar    1  ZINC000446721380   -0.1200
     13 C13        -9.3116    3.4279   51.4213 C.ar    1  ZINC000446721380   -0.0800
     14 C14        -9.8722    2.5052   52.2848 C.ar    1  ZINC000446721380   -0.1300
     15 C15        -9.2124    1.3212   52.5599 C.ar    1  ZINC000446721380   -0.0700
     16 C16        -7.9931    1.0545   51.9672 C.ar    1  ZINC000446721380   -0.1300
     17 Br17       -7.0917   -0.5647   52.3431 Br      1  ZINC000446721380   -0.0500
     18 C18        -0.5557    3.3214   49.2685 C.ar    1  ZINC000446721380    0.1500
     19 O19        -0.1891    3.8740   50.4548 O.3     1  ZINC000446721380   -0.3100
     20 C20         0.3912    3.0007   51.4255 C.3     1  ZINC000446721380    0.0700
     21 C21         1.5174    3.7309   52.1600 C.3     1  ZINC000446721380   -0.1200
     22 H22         1.7751    4.6537   51.6401 H       1  ZINC000446721380    0.1000
     23 C23         2.7604    2.8174   52.2910 C.3     1  ZINC000446721380   -0.1500
     24 C24         3.2417    3.1288   53.7312 C.3     1  ZINC000446721380    0.0500
     25 O25         2.0117    3.2988   54.4679 O.3     1  ZINC000446721380   -0.3800
     26 C26         1.1080    4.0282   53.6156 C.3     1  ZINC000446721380    0.0500
     27 C27         0.4067    3.0163   48.3173 C.ar    1  ZINC000446721380   -0.2100
     28 H28         1.4317    1.1142   46.2253 H       1  ZINC000446721380    0.0800
     29 H29         0.6397    2.2216   45.0786 H       1  ZINC000446721380    0.0700
     30 H30         1.9101    2.8277   46.1681 H       1  ZINC000446721380    0.0700
     31 H31        -1.5932    1.7566   45.9114 H       1  ZINC000446721380    0.1300
     32 H32        -3.3032    2.2874   47.6005 H       1  ZINC000446721380    0.1300
     33 H33        -2.4879    3.3683   51.0347 H       1  ZINC000446721380    0.0800
     34 H34        -3.3534    4.3690   49.8439 H       1  ZINC000446721380    0.0800
     35 H35        -3.8625    1.5383   49.5282 H       1  ZINC000446721380    0.4000
     36 H36        -6.0383    0.8737   50.0512 H       1  ZINC000446721380    0.4100
     37 H37        -7.6528    3.8916   50.1556 H       1  ZINC000446721380    0.1500
     38 H38        -9.8291    4.3519   51.2093 H       1  ZINC000446721380    0.1300
     39 H39       -10.8272    2.7095   52.7459 H       1  ZINC000446721380    0.1300
     40 H40        -9.6525    0.6027   53.2355 H       1  ZINC000446721380    0.1400
     41 H41        -0.3717    2.6955   52.1418 H       1  ZINC000446721380    0.0700
     42 H42         0.7943    2.1194   50.9266 H       1  ZINC000446721380    0.0700
     43 H43         2.4839    1.7677   52.1917 H       1  ZINC000446721380    0.0800
     44 H44         3.5214    3.0888   51.5594 H       1  ZINC000446721380    0.0900
     45 H45         3.8172    2.2946   54.1323 H       1  ZINC000446721380    0.1000
     46 H46         3.8300    4.0462   53.7494 H       1  ZINC000446721380    0.0600
     47 H47         1.1903    5.0964   53.8161 H       1  ZINC000446721380    0.0600
     48 H48         0.0849    3.6943   53.7883 H       1  ZINC000446721380    0.0900
     49 H49         1.4480    3.2219   48.5169 H       1  ZINC000446721380    0.1300
@<TRIPOS>BOND
     1     1     2    1
     2     1    28    1
     3     1    29    1
     4     1    30    1
     5     2    27   ar
     6     2     3   ar
     7     3     4   ar
     8     3    31    1
     9     4     5   ar
    10     4    32    1
    11     5     6    1
    12     5    18   ar
    13     6     7    1
    14     6    33    1
    15     6    34    1
    16     7     8   am
    17     7    35    1
    18     8     9    2
    19     8    10   am
    20    10    11    1
    21    10    36    1
    22    11    16   ar
    23    11    12   ar
    24    12    13   ar
    25    12    37    1
    26    13    14   ar
    27    13    38    1
    28    14    15   ar
    29    14    39    1
    30    15    16   ar
    31    15    40    1
    32    16    17    1
    33    18    19    1
    34    18    27   ar
    35    19    20    1
    36    20    21    1
    37    20    41    1
    38    20    42    1
    39    21    22    1
    40    21    26    1
    41    21    23    1
    42    23    24    1
    43    23    43    1
    44    23    44    1
    45    24    25    1
    46    24    45    1
    47    24    46    1
    48    25    26    1
    49    26    47    1
    50    26    48    1
    51    27    49    1
@<TRIPOS>SUBSTRUCTURE
     1 ZINC000446721380        1 TEMP              0 ****  ****    0 ROOT


##########                                Name:    ZINC001625935330
##########                DOCK_Rotatable_Bonds:                   5
##########                         Heavy_Atoms:                  25
##########                    Molecular_Weight:             327.385
##########                DOCK_Rotatable_Bonds:                   5
##########                       Formal_Charge:           0.0199995
##########                     HBond_Acceptors:                   4
##########                        HBond_Donors:                   1
##########                         Heavy_Atoms:                  25
##########                          Grid_Score:          -27.401552
##########                     Grid_vdw_energy:          -26.407288
##########                      Grid_es_energy:           -0.994265
##########           Internal_energy_repulsive:           15.827386

@<TRIPOS>MOLECULE
ZINC001625935330
 42 44 1 0 0
SMALL
USER_CHARGES


@<TRIPOS>ATOM
      1 C1         -0.8852    5.3733   55.4780 C.3     1  ZINC001625935330   -0.1600
      2 C2         -1.0538    3.8531   55.4385 C.3     1  ZINC001625935330    0.1800
      3 H3         -1.7719    3.5473   56.1994 H       1  ZINC001625935330    0.1000
      4 N4         -1.5411    3.4500   54.1170 N.am    1  ZINC001625935330   -0.7100
      5 C5         -2.8328    3.6465   53.7864 C.2     1  ZINC001625935330    0.5800
      6 O6         -3.5937    4.1566   54.5848 O.2     1  ZINC001625935330   -0.5300
      7 C7         -3.3253    3.2405   52.4492 C.ar    1  ZINC001625935330    0.0800
      8 C8         -2.4160    2.9918   51.4269 C.ar    1  ZINC001625935330   -0.1000
      9 C9         -2.8977    2.6092   50.1719 C.ar    1  ZINC001625935330    0.0000
     10 C10        -1.9661    2.3328   49.0507 C.ar    1  ZINC001625935330   -0.0600
     11 C11        -0.5903    2.3209   49.2714 C.ar    1  ZINC001625935330   -0.1000
     12 C12         0.2716    2.0626   48.2249 C.ar    1  ZINC001625935330   -0.1200
     13 C13        -0.2280    1.8159   46.9588 C.ar    1  ZINC001625935330   -0.1100
     14 C14        -1.5929    1.8265   46.7340 C.ar    1  ZINC001625935330   -0.1200
     15 C15        -2.4641    2.0783   47.7743 C.ar    1  ZINC001625935330   -0.1000
     16 C16        -4.2794    2.4937   50.0010 C.ar    1  ZINC001625935330   -0.1400
     17 C17        -5.1166    2.7594   51.0701 C.ar    1  ZINC001625935330    0.1100
     18 N18        -4.6307    3.1125   52.2405 N.ar    1  ZINC001625935330   -0.4600
     19 C19         0.2742    3.1932   55.7069 C.ar    1  ZINC001625935330   -0.0900
     20 C20         0.5711    2.7308   56.9764 C.ar    1  ZINC001625935330   -0.0800
     21 C21         1.7881    2.1237   57.2315 C.ar    1  ZINC001625935330   -0.1100
     22 C22         2.7138    1.9751   56.2200 C.ar    1  ZINC001625935330   -0.0700
     23 C23         2.4205    2.4391   54.9359 C.ar    1  ZINC001625935330   -0.0200
     24 C24         3.3768    2.2882   53.8806 C.1     1  ZINC001625935330    0.2500
     25 N25         4.1354    2.1685   53.0436 N.1     1  ZINC001625935330   -0.4100
     26 C26         1.1887    3.0464   54.6843 C.ar    1  ZINC001625935330   -0.0600
     27 H27        -0.5227    5.6732   56.4613 H       1  ZINC001625935330    0.0700
     28 H28        -0.1672    5.6791   54.7172 H       1  ZINC001625935330    0.0600
     29 H29        -1.8457    5.8505   55.2839 H       1  ZINC001625935330    0.0700
     30 H30        -0.9342    3.0418   53.4800 H       1  ZINC001625935330    0.4100
     31 H31        -1.3547    3.0929   51.5999 H       1  ZINC001625935330    0.1500
     32 H32        -0.1992    2.5137   50.2595 H       1  ZINC001625935330    0.1300
     33 H33         1.3381    2.0535   48.3947 H       1  ZINC001625935330    0.1300
     34 H34         0.4501    1.6146   46.1426 H       1  ZINC001625935330    0.1300
     35 H35        -1.9775    1.6335   45.7435 H       1  ZINC001625935330    0.1300
     36 H36        -3.5296    2.0860   47.5978 H       1  ZINC001625935330    0.1300
     37 H37        -4.6892    2.2009   49.0457 H       1  ZINC001625935330    0.1400
     38 H38        -6.1855    2.6717   50.9428 H       1  ZINC001625935330    0.1700
     39 H39        -0.1502    2.8447   57.7722 H       1  ZINC001625935330    0.1300
     40 H40         2.0138    1.7657   58.2252 H       1  ZINC001625935330    0.1400
     41 H41         3.6635    1.5015   56.4205 H       1  ZINC001625935330    0.1400
     42 H42         0.9556    3.4074   53.6935 H       1  ZINC001625935330    0.1400
@<TRIPOS>BOND
     1     1     2    1
     2     1    27    1
     3     1    28    1
     4     1    29    1
     5     2     3    1
     6     2     4    1
     7     2    19    1
     8     4     5   am
     9     4    30    1
    10     5     6    2
    11     5     7    1
    12     7    18   ar
    13     7     8   ar
    14     8     9   ar
    15     8    31    1
    16     9    10    1
    17     9    16   ar
    18    10    15   ar
    19    10    11   ar
    20    11    12   ar
    21    11    32    1
    22    12    13   ar
    23    12    33    1
    24    13    14   ar
    25    13    34    1
    26    14    15   ar
    27    14    35    1
    28    15    36    1
    29    16    17   ar
    30    16    37    1
    31    17    18   ar
    32    17    38    1
    33    19    26   ar
    34    19    20   ar
    35    20    21   ar
    36    20    39    1
    37    21    22   ar
    38    21    40    1
    39    22    23   ar
    40    22    41    1
    41    23    24    1
    42    23    26   ar
    43    24    25    3
    44    26    42    1
@<TRIPOS>SUBSTRUCTURE
     1 ZINC001625935330        1 TEMP              0 ****  ****    0 ROOT


##########                                Name:    ZINC000822206030
##########                DOCK_Rotatable_Bonds:                   7
##########                         Heavy_Atoms:                  29
##########                    Molecular_Weight:             391.448
##########                DOCK_Rotatable_Bonds:                   7
##########                       Formal_Charge:         -0.00999995
##########                     HBond_Acceptors:                   7
##########                        HBond_Donors:                   1
##########                         Heavy_Atoms:                  29
##########                          Grid_Score:          -27.399593
##########                     Grid_vdw_energy:          -28.343838
##########                      Grid_es_energy:            0.944245
##########           Internal_energy_repulsive:           24.402054

@<TRIPOS>MOLECULE
ZINC000822206030
 51 55 1 0 0
SMALL
USER_CHARGES


@<TRIPOS>ATOM
      1 C1          0.2043    5.9550   48.5286 C.3     1  ZINC000822206030   -0.1300
      2 C2         -0.1856    4.6310   47.9235 C.ar    1  ZINC000822206030   -0.0400
      3 C3          0.1599    4.3391   46.6187 C.ar    1  ZINC000822206030   -0.1500
      4 C4         -0.1986    3.1228   46.0620 C.ar    1  ZINC000822206030    0.1100
      5 F5          0.1399    2.8392   44.7853 F       1  ZINC000822206030   -0.1400
      6 C6         -0.9032    2.1966   46.8123 C.ar    1  ZINC000822206030   -0.1500
      7 C7         -1.2508    2.4848   48.1178 C.ar    1  ZINC000822206030   -0.0800
      8 C8         -0.8877    3.7014   48.6794 C.ar    1  ZINC000822206030    0.1100
      9 N9         -1.2387    3.9953   50.0028 N.am    1  ZINC000822206030   -0.5600
     10 C10        -2.3920    4.8547   50.2812 C.3     1  ZINC000822206030    0.1500
     11 C11        -3.5465    4.0088   50.7528 C.ar    1  ZINC000822206030   -0.0900
     12 C12        -4.1124    4.2448   51.9927 C.ar    1  ZINC000822206030   -0.1000
     13 C13        -5.1703    3.4733   52.4293 C.ar    1  ZINC000822206030   -0.0800
     14 C14        -5.6680    2.4554   51.6189 C.ar    1  ZINC000822206030   -0.0100
     15 C15        -6.8060    1.6226   52.0831 C.2     1  ZINC000822206030    0.2200
     16 N16        -7.5473    1.8286   53.1533 N.2     1  ZINC000822206030   -0.2900
     17 N17        -8.4278    0.8893   53.2100 N.pl3   1  ZINC000822206030   -0.2300
     18 N18        -8.2678    0.0948   52.2098 N.2     1  ZINC000822206030   -0.0500
     19 N19        -7.2831    0.5180   51.4922 N.2     1  ZINC000822206030   -0.2700
     20 C20        -5.0943    2.2219   50.3712 C.ar    1  ZINC000822206030   -0.0800
     21 C21        -4.0402    3.0028   49.9420 C.ar    1  ZINC000822206030   -0.0900
     22 C22        -0.5153    3.4876   51.0204 C.2     1  ZINC000822206030    0.5500
     23 O23         0.4386    2.7749   50.7900 O.2     1  ZINC000822206030   -0.5000
     24 C24        -0.8919    3.8054   52.4445 C.3     1  ZINC000822206030   -0.1900
     25 H25        -1.7676    3.2814   52.8274 H       1  ZINC000822206030    0.1200
     26 C26        -0.6525    5.2342   52.9365 C.3     1  ZINC000822206030   -0.1400
     27 C27         0.2440    4.0949   53.4278 C.3     1  ZINC000822206030   -0.0900
     28 H28         0.1156    3.7617   54.4576 H       1  ZINC000822206030    0.1100
     29 C29         1.6755    4.0403   52.8903 C.3     1  ZINC000822206030   -0.1100
     30 C30         2.8140    4.2577   53.8891 C.3     1  ZINC000822206030   -0.2000
     31 C31         2.5484    2.8610   53.3239 C.3     1  ZINC000822206030   -0.1200
     32 H32         1.1849    5.8661   48.9961 H       1  ZINC000822206030    0.0900
     33 H33         0.2417    6.7145   47.7476 H       1  ZINC000822206030    0.0700
     34 H34        -0.5316    6.2420   49.2797 H       1  ZINC000822206030    0.0700
     35 H35         0.7098    5.0600   46.0320 H       1  ZINC000822206030    0.1400
     36 H36        -1.1816    1.2485   46.3764 H       1  ZINC000822206030    0.1400
     37 H37        -1.8007    1.7623   48.7026 H       1  ZINC000822206030    0.1400
     38 H38        -2.1294    5.5755   51.0556 H       1  ZINC000822206030    0.1000
     39 H39        -2.6774    5.3853   49.3728 H       1  ZINC000822206030    0.0900
     40 H40        -3.7256    5.0340   52.6203 H       1  ZINC000822206030    0.1300
     41 H41        -5.6112    3.6582   53.3977 H       1  ZINC000822206030    0.1400
     42 H42        -9.1046    0.7954   53.8985 H       1  ZINC000822206030    0.4800
     43 H43        -5.4762    1.4338   49.7391 H       1  ZINC000822206030    0.1300
     44 H44        -3.5947    2.8228   48.9747 H       1  ZINC000822206030    0.1400
     45 H45        -0.2226    5.9443   52.2301 H       1  ZINC000822206030    0.1000
     46 H46        -1.3705    5.6501   53.6434 H       1  ZINC000822206030    0.1000
     47 H47         1.8128    4.4230   51.8790 H       1  ZINC000822206030    0.1000
     48 H48         3.7005    4.7837   53.5350 H       1  ZINC000822206030    0.0900
     49 H49         2.5432    4.4397   54.9290 H       1  ZINC000822206030    0.0900
     50 H50         2.1030    2.1240   53.9922 H       1  ZINC000822206030    0.0800
     51 H51         3.2603    2.4681   52.5980 H       1  ZINC000822206030    0.0900
@<TRIPOS>BOND
     1     1     2    1
     2     1    32    1
     3     1    33    1
     4     1    34    1
     5     2     8   ar
     6     2     3   ar
     7     3     4   ar
     8     3    35    1
     9     4     5    1
    10     4     6   ar
    11     6     7   ar
    12     6    36    1
    13     7     8   ar
    14     7    37    1
    15     8     9    1
    16     9    10    1
    17     9    22   am
    18    10    11    1
    19    10    38    1
    20    10    39    1
    21    11    21   ar
    22    11    12   ar
    23    12    13   ar
    24    12    40    1
    25    13    14   ar
    26    13    41    1
    27    14    15    1
    28    14    20   ar
    29    15    19    1
    30    15    16    2
    31    16    17    1
    32    17    18    1
    33    17    42    1
    34    18    19    2
    35    20    21   ar
    36    20    43    1
    37    21    44    1
    38    22    23    2
    39    22    24    1
    40    24    25    1
    41    24    27    1
    42    24    26    1
    43    26    27    1
    44    26    45    1
    45    26    46    1
    46    27    28    1
    47    27    29    1
    48    29    31    1
    49    29    30    1
    50    29    47    1
    51    30    31    1
    52    30    48    1
    53    30    49    1
    54    31    50    1
    55    31    51    1
@<TRIPOS>SUBSTRUCTURE
     1 ZINC000822206030        1 TEMP              0 ****  ****    0 ROOT


##########                                Name:    ZINC000496437542
##########                DOCK_Rotatable_Bonds:                   7
##########                         Heavy_Atoms:                  24
##########                    Molecular_Weight:             338.447
##########                DOCK_Rotatable_Bonds:                   7
##########                       Formal_Charge:           0.0400002
##########                     HBond_Acceptors:                   6
##########                        HBond_Donors:                   1
##########                         Heavy_Atoms:                  24
##########                          Grid_Score:          -27.387949
##########                     Grid_vdw_energy:          -26.215788
##########                      Grid_es_energy:           -1.172161
##########           Internal_energy_repulsive:           17.959816

@<TRIPOS>MOLECULE
ZINC000496437542
 54 55 1 0 0
SMALL
USER_CHARGES


@<TRIPOS>ATOM
      1 C1          2.5385   -1.7852   49.0702 C.3     1  ZINC000496437542   -0.1800
      2 C2          3.3608   -0.5033   48.9222 C.3     1  ZINC000496437542    0.1400
      3 C3          2.7944    0.5756   49.8473 C.3     1  ZINC000496437542   -0.1800
      4 C4          4.8167   -0.7852   49.2987 C.3     1  ZINC000496437542   -0.1400
      5 O5          3.2969   -0.0436   47.5464 O.3     1  ZINC000496437542   -0.3600
      6 C6          3.7886    1.1829   47.2883 C.2     1  ZINC000496437542    0.6600
      7 O7          4.9902    1.3581   47.2411 O.2     1  ZINC000496437542   -0.5600
      8 N8          2.9483    2.2162   47.0823 N.am    1  ZINC000496437542   -0.6000
      9 C9          3.4624    3.5655   46.7986 C.3     1  ZINC000496437542    0.0800
     10 C10         2.7553    4.0991   45.5475 C.3     1  ZINC000496437542    0.0500
     11 O11         1.3410    3.9819   45.7200 O.3     1  ZINC000496437542   -0.3700
     12 C12         0.8788    2.6369   45.8664 C.3     1  ZINC000496437542    0.0700
     13 H13         1.1821    2.0512   44.9986 H       1  ZINC000496437542    0.0700
     14 C14        -0.6470    2.6304   45.9794 C.3     1  ZINC000496437542    0.1300
     15 N15        -1.0522    3.3900   47.1646 N.am    1  ZINC000496437542   -0.7200
     16 C16        -1.8973    2.8417   48.0600 C.2     1  ZINC000496437542    0.5600
     17 O17        -2.3223    1.7158   47.8847 O.2     1  ZINC000496437542   -0.5400
     18 C18        -2.3057    3.6051   49.2493 C.2     1  ZINC000496437542   -0.1900
     19 C19        -3.5336    3.4949   49.7085 C.2     1  ZINC000496437542   -0.0600
     20 C20        -3.9646    4.2764   50.9316 C.3     1  ZINC000496437542   -0.1000
     21 C21        -3.2897    3.6668   52.1623 C.3     1  ZINC000496437542   -0.1100
     22 C22        -1.9045    4.2535   52.3638 C.3     1  ZINC000496437542   -0.1200
     23 C23        -0.9154    3.8792   51.2751 C.3     1  ZINC000496437542   -0.1200
     24 C24        -1.3091    4.5094   49.9432 C.3     1  ZINC000496437542   -0.0800
     25 C25         1.4897    2.0273   47.1283 C.3     1  ZINC000496437542    0.1000
     26 H26         1.5013   -1.5844   48.8020 H       1  ZINC000496437542    0.0900
     27 H27         2.9421   -2.5538   48.4112 H       1  ZINC000496437542    0.0600
     28 H28         2.5865   -2.1303   50.1030 H       1  ZINC000496437542    0.0700
     29 H29         2.8423    0.2305   50.8801 H       1  ZINC000496437542    0.0700
     30 H30         3.3802    1.4887   49.7419 H       1  ZINC000496437542    0.0600
     31 H31         1.7571    0.7763   49.5791 H       1  ZINC000496437542    0.0900
     32 H32         5.2202   -1.5538   48.6396 H       1  ZINC000496437542    0.0700
     33 H33         5.4025    0.1280   49.1933 H       1  ZINC000496437542    0.0700
     34 H34         4.8646   -1.1303   50.3315 H       1  ZINC000496437542    0.0800
     35 H35         3.2572    4.2219   47.6444 H       1  ZINC000496437542    0.0800
     36 H36         4.5369    3.5194   46.6214 H       1  ZINC000496437542    0.1000
     37 H37         3.0183    5.1466   45.3994 H       1  ZINC000496437542    0.1100
     38 H38         3.0654    3.5188   44.6786 H       1  ZINC000496437542    0.0600
     39 H39        -1.0792    3.0878   45.0893 H       1  ZINC000496437542    0.0900
     40 H40        -1.0004    1.6030   46.0678 H       1  ZINC000496437542    0.0800
     41 H41        -0.7123    4.2875   47.3051 H       1  ZINC000496437542    0.4000
     42 H42        -4.2374    2.8444   49.2105 H       1  ZINC000496437542    0.1300
     43 H43        -3.6613    5.3180   50.8260 H       1  ZINC000496437542    0.0800
     44 H44        -5.0475    4.2172   51.0408 H       1  ZINC000496437542    0.0800
     45 H45        -3.8978    3.8722   53.0433 H       1  ZINC000496437542    0.0700
     46 H46        -3.2064    2.5883   52.0284 H       1  ZINC000496437542    0.0700
     47 H47        -1.9885    5.3397   52.3989 H       1  ZINC000496437542    0.0600
     48 H48        -1.5157    3.9067   53.3211 H       1  ZINC000496437542    0.0600
     49 H49         0.0780    4.2277   51.5577 H       1  ZINC000496437542    0.0700
     50 H50        -0.8964    2.7949   51.1652 H       1  ZINC000496437542    0.0600
     51 H51        -0.4241    4.6258   49.3175 H       1  ZINC000496437542    0.0700
     52 H52        -1.7664    5.4830   50.1199 H       1  ZINC000496437542    0.0800
     53 H53         1.2570    0.9633   47.1717 H       1  ZINC000496437542    0.1100
     54 H54         1.0879    2.5277   48.0093 H       1  ZINC000496437542    0.0900
@<TRIPOS>BOND
     1     1     2    1
     2     1    26    1
     3     1    27    1
     4     1    28    1
     5     2     3    1
     6     2     4    1
     7     2     5    1
     8     3    29    1
     9     3    30    1
    10     3    31    1
    11     4    32    1
    12     4    33    1
    13     4    34    1
    14     5     6    1
    15     6     7    2
    16     6     8   am
    17     8    25    1
    18     8     9    1
    19     9    10    1
    20     9    35    1
    21     9    36    1
    22    10    11    1
    23    10    37    1
    24    10    38    1
    25    11    12    1
    26    12    13    1
    27    12    14    1
    28    12    25    1
    29    14    15    1
    30    14    39    1
    31    14    40    1
    32    15    16   am
    33    15    41    1
    34    16    17    2
    35    16    18    1
    36    18    24    1
    37    18    19    2
    38    19    20    1
    39    19    42    1
    40    20    21    1
    41    20    43    1
    42    20    44    1
    43    21    22    1
    44    21    45    1
    45    21    46    1
    46    22    23    1
    47    22    47    1
    48    22    48    1
    49    23    24    1
    50    23    49    1
    51    23    50    1
    52    24    51    1
    53    24    52    1
    54    25    53    1
    55    25    54    1
@<TRIPOS>SUBSTRUCTURE
     1 ZINC000496437542        1 TEMP              0 ****  ****    0 ROOT


##########                                Name:    ZINC000052999724
##########                DOCK_Rotatable_Bonds:                   6
##########                         Heavy_Atoms:                  25
##########                    Molecular_Weight:             398.571
##########                DOCK_Rotatable_Bonds:                   6
##########                       Formal_Charge:           0.0399994
##########                     HBond_Acceptors:                   8
##########                        HBond_Donors:                   1
##########                         Heavy_Atoms:                  25
##########                          Grid_Score:          -27.370611
##########                     Grid_vdw_energy:          -27.361998
##########                      Grid_es_energy:           -0.008615
##########           Internal_energy_repulsive:           11.260905

@<TRIPOS>MOLECULE
ZINC000052999724
 47 49 1 0 0
SMALL
USER_CHARGES


@<TRIPOS>ATOM
      1 C1        -12.9044    1.0343   63.5674 C.3     1  ZINC000052999724   -0.1400
      2 C2        -11.7679    1.8992   63.0185 C.3     1  ZINC000052999724   -0.0400
      3 C3        -12.0825    3.3750   63.2712 C.3     1  ZINC000052999724   -0.1400
      4 C4        -10.4798    1.5345   63.7104 C.2     1  ZINC000052999724   -0.0400
      5 C5         -9.2900    1.3876   63.0545 C.2     1  ZINC000052999724   -0.2600
      6 C6         -9.0872    1.5582   61.6128 C.2     1  ZINC000052999724    0.6000
      7 O7         -8.8591    2.6633   61.1570 O.2     1  ZINC000052999724   -0.5200
      8 N8         -9.1533    0.4911   60.7920 N.am    1  ZINC000052999724   -0.6000
      9 C9         -9.4339   -0.8483   61.3267 C.3     1  ZINC000052999724    0.1100
     10 C10       -10.6240   -1.4430   60.5673 C.3     1  ZINC000052999724   -0.1400
     11 C11       -10.3314   -1.4143   59.0654 C.3     1  ZINC000052999724    0.1500
     12 N12       -11.4536   -2.0127   58.3381 N.am    1  ZINC000052999724   -1.1100
     13 S13       -11.2176   -3.3753   57.4271 S.o2    1  ZINC000052999724    2.7200
     14 O14       -10.3688   -2.9972   56.3521 O.2     1  ZINC000052999724   -0.9500
     15 O15       -10.8993   -4.4176   58.3392 O.2     1  ZINC000052999724   -0.9400
     16 C16       -12.7703   -3.7987   56.7100 C.2     1  ZINC000052999724   -0.8000
     17 C17       -13.3243   -5.0119   56.7363 C.2     1  ZINC000052999724    0.0100
     18 C18       -14.5528   -5.1059   56.1055 C.2     1  ZINC000052999724   -0.1600
     19 C19       -14.9965   -3.9691   55.5668 C.2     1  ZINC000052999724   -0.1700
     20 S20       -13.8305   -2.6846   55.8566 S.3     1  ZINC000052999724    0.2100
     21 C21       -10.1418    0.0339   58.6084 C.3     1  ZINC000052999724   -0.1500
     22 C22        -8.9523    0.6463   59.3449 C.3     1  ZINC000052999724    0.1100
     23 S23        -8.0414    0.9619   64.2169 S.3     1  ZINC000052999724    0.2100
     24 C24        -9.1606    1.0017   65.5041 C.2     1  ZINC000052999724   -0.2400
     25 C25       -10.3835    1.3220   65.0652 C.2     1  ZINC000052999724   -0.1300
     26 H26       -12.6803   -0.0171   63.3873 H       1  ZINC000052999724    0.0600
     27 H27       -13.0064    1.2057   64.6389 H       1  ZINC000052999724    0.0600
     28 H28       -13.8360    1.2981   63.0668 H       1  ZINC000052999724    0.0600
     29 H29       -11.6659    1.7278   61.9469 H       1  ZINC000052999724    0.0800
     30 H30       -12.1845    3.5465   64.3428 H       1  ZINC000052999724    0.0600
     31 H31       -11.2728    3.9912   62.8801 H       1  ZINC000052999724    0.0600
     32 H32       -13.0141    3.6388   62.7707 H       1  ZINC000052999724    0.0600
     33 H33        -8.5598   -1.4855   61.1930 H       1  ZINC000052999724    0.0800
     34 H34        -9.6766   -0.7751   62.3869 H       1  ZINC000052999724    0.0900
     35 H35       -10.7821   -2.4728   60.8876 H       1  ZINC000052999724    0.0900
     36 H36       -11.5184   -0.8556   60.7750 H       1  ZINC000052999724    0.0800
     37 H37        -9.4230   -1.9811   58.8615 H       1  ZINC000052999724    0.0900
     38 H38       -12.3348   -1.6107   58.3902 H       1  ZINC000052999724    0.4200
     39 H39       -12.8500   -5.8567   57.2134 H       1  ZINC000052999724    0.1600
     40 H40       -15.1096   -6.0298   56.0530 H       1  ZINC000052999724    0.1500
     41 H41       -15.9307   -3.8542   55.0371 H       1  ZINC000052999724    0.1800
     42 H42        -9.9566    0.0552   57.5345 H       1  ZINC000052999724    0.1000
     43 H43       -11.0408    0.6074   58.8345 H       1  ZINC000052999724    0.0800
     44 H44        -8.8746    1.7049   59.0968 H       1  ZINC000052999724    0.1000
     45 H45        -8.0370    0.1321   59.0519 H       1  ZINC000052999724    0.0800
     46 H46        -8.9141    0.7993   66.5359 H       1  ZINC000052999724    0.1700
     47 H47       -11.2343    1.3999   65.7259 H       1  ZINC000052999724    0.1400
@<TRIPOS>BOND
     1     1     2    1
     2     1    26    1
     3     1    27    1
     4     1    28    1
     5     2     3    1
     6     2     4    1
     7     2    29    1
     8     3    30    1
     9     3    31    1
    10     3    32    1
    11     4    25    1
    12     4     5    2
    13     5     6    1
    14     5    23    1
    15     6     7    2
    16     6     8   am
    17     8    22    1
    18     8     9    1
    19     9    10    1
    20     9    33    1
    21     9    34    1
    22    10    11    1
    23    10    35    1
    24    10    36    1
    25    11    12    1
    26    11    21    1
    27    11    37    1
    28    12    13   am
    29    12    38    1
    30    13    14    2
    31    13    15    2
    32    13    16    1
    33    16    20    1
    34    16    17    2
    35    17    18    1
    36    17    39    1
    37    18    19    2
    38    18    40    1
    39    19    20    1
    40    19    41    1
    41    21    22    1
    42    21    42    1
    43    21    43    1
    44    22    44    1
    45    22    45    1
    46    23    24    1
    47    24    25    2
    48    24    46    1
    49    25    47    1
@<TRIPOS>SUBSTRUCTURE
     1 ZINC000052999724        1 TEMP              0 ****  ****    0 ROOT


##########                                Name:    ZINC000937331732
##########                DOCK_Rotatable_Bonds:                   6
##########                         Heavy_Atoms:                  24
##########                    Molecular_Weight:              333.35
##########                DOCK_Rotatable_Bonds:                   6
##########                       Formal_Charge:          -0.0299999
##########                     HBond_Acceptors:                  10
##########                        HBond_Donors:                   1
##########                         Heavy_Atoms:                  24
##########                          Grid_Score:          -27.357445
##########                     Grid_vdw_energy:          -24.811897
##########                      Grid_es_energy:           -2.545548
##########           Internal_energy_repulsive:           24.256155

@<TRIPOS>MOLECULE
ZINC000937331732
 43 45 1 0 0
SMALL
USER_CHARGES


@<TRIPOS>ATOM
      1 C1         -5.5290    4.1186   52.1676 C.3     1  ZINC000937331732    0.0600
      2 N2         -4.5546    3.3563   51.3828 N.am    1  ZINC000937331732   -0.6100
      3 C3         -4.9750    2.5370   50.3988 C.2     1  ZINC000937331732    0.5000
      4 O4         -4.1684    1.9071   49.7481 O.2     1  ZINC000937331732   -0.5200
      5 C5         -6.4475    2.4034   50.1070 C.3     1  ZINC000937331732    0.1500
      6 N6         -7.0663    1.5302   51.1074 N.am    1  ZINC000937331732   -0.4400
      7 N7         -6.6485    0.2381   51.4548 N.2     1  ZINC000937331732   -0.2800
      8 C8         -7.4431   -0.2091   52.3729 C.2     1  ZINC000937331732    0.2600
      9 N9         -8.3848    0.7516   52.6507 N.am    1  ZINC000937331732   -0.5600
     10 C10        -9.4655    0.6345   53.6329 C.3     1  ZINC000937331732    0.1000
     11 C11        -8.1409    1.8229   51.8695 C.2     1  ZINC000937331732    0.6500
     12 O12        -8.7780    2.8609   51.8495 O.2     1  ZINC000937331732   -0.5500
     13 C13        -3.1233    3.4849   51.6676 C.3     1  ZINC000937331732    0.1300
     14 H14        -2.5742    2.6314   51.2698 H       1  ZINC000937331732    0.1200
     15 C15        -2.5660    4.8132   51.0910 C.3     1  ZINC000937331732   -0.1500
     16 C16        -1.3585    5.0753   52.0254 C.3     1  ZINC000937331732    0.1000
     17 N17        -1.8071    4.6275   53.3564 N.am    1  ZINC000937331732   -0.6000
     18 C18        -1.3157    5.0557   54.5361 C.2     1  ZINC000937331732    0.6200
     19 O19        -0.4250    5.8832   54.5594 O.2     1  ZINC000937331732   -0.5400
     20 C20        -1.8580    4.5208   55.7982 C.2     1  ZINC000937331732    0.1400
     21 N21        -1.4653    4.8551   57.0092 N.2     1  ZINC000937331732   -0.4400
     22 C22        -2.1781    4.1721   57.9019 C.2     1  ZINC000937331732   -0.0300
     23 C23        -3.0513    3.3788   57.2343 C.2     1  ZINC000937331732   -0.0200
     24 N24        -2.8586    3.5970   55.9119 N.pl3   1  ZINC000937331732   -0.5200
     25 C25        -2.8795    3.6323   53.1843 C.3     1  ZINC000937331732    0.1000
     26 H26        -5.8349    3.5331   53.0347 H       1  ZINC000937331732    0.0700
     27 H27        -5.0762    5.0524   52.5011 H       1  ZINC000937331732    0.0800
     28 H28        -6.4008    4.3374   51.5510 H       1  ZINC000937331732    0.0800
     29 H29        -6.9159    3.3869   50.1438 H       1  ZINC000937331732    0.1300
     30 H30        -6.5837    1.9729   49.1150 H       1  ZINC000937331732    0.1300
     31 H31        -7.3771   -1.1790   52.8435 H       1  ZINC000937331732    0.2300
     32 H32        -9.4121   -0.3404   54.1174 H       1  ZINC000937331732    0.1000
     33 H33        -9.3616    1.4190   54.3826 H       1  ZINC000937331732    0.0800
     34 H34       -10.4267    0.7380   53.1296 H       1  ZINC000937331732    0.0800
     35 H35        -2.2406    4.6848   50.0587 H       1  ZINC000937331732    0.0900
     36 H36        -3.3023    5.6129   51.1704 H       1  ZINC000937331732    0.0800
     37 H37        -0.4948    4.4949   51.7010 H       1  ZINC000937331732    0.0800
     38 H38        -1.1171    6.1380   52.0441 H       1  ZINC000937331732    0.1100
     39 H39        -2.0778    4.2386   58.9752 H       1  ZINC000937331732    0.1800
     40 H40        -3.7687    2.7022   57.6746 H       1  ZINC000937331732    0.1900
     41 H41        -3.3370    3.1731   55.1823 H       1  ZINC000937331732    0.4300
     42 H42        -3.7901    3.9805   53.6717 H       1  ZINC000937331732    0.0800
     43 H43        -2.5708    2.6774   53.6097 H       1  ZINC000937331732    0.0800
@<TRIPOS>BOND
     1     1     2    1
     2     1    26    1
     3     1    27    1
     4     1    28    1
     5     2     3   am
     6     2    13    1
     7     3     4    2
     8     3     5    1
     9     5     6    1
    10     5    29    1
    11     5    30    1
    12     6    11   am
    13     6     7    1
    14     7     8    2
    15     8     9    1
    16     8    31    1
    17     9    10    1
    18     9    11   am
    19    10    32    1
    20    10    33    1
    21    10    34    1
    22    11    12    2
    23    13    14    1
    24    13    25    1
    25    13    15    1
    26    15    16    1
    27    15    35    1
    28    15    36    1
    29    16    17    1
    30    16    37    1
    31    16    38    1
    32    17    18   am
    33    17    25    1
    34    18    19    2
    35    18    20    1
    36    20    24    1
    37    20    21    2
    38    21    22    1
    39    22    23    2
    40    22    39    1
    41    23    24    1
    42    23    40    1
    43    24    41    1
    44    25    42    1
    45    25    43    1
@<TRIPOS>SUBSTRUCTURE
     1 ZINC000937331732        1 TEMP              0 ****  ****    0 ROOT


##########                                Name:    ZINC000329637067
##########                DOCK_Rotatable_Bonds:                   5
##########                         Heavy_Atoms:                  26
##########                    Molecular_Weight:             362.429
##########                DOCK_Rotatable_Bonds:                   5
##########                       Formal_Charge:           0.0199998
##########                     HBond_Acceptors:                   8
##########                        HBond_Donors:                   0
##########                         Heavy_Atoms:                  26
##########                          Grid_Score:          -27.338287
##########                     Grid_vdw_energy:          -25.749514
##########                      Grid_es_energy:           -1.588773
##########           Internal_energy_repulsive:           28.570421

@<TRIPOS>MOLECULE
ZINC000329637067
 52 54 1 0 0
SMALL
USER_CHARGES


@<TRIPOS>ATOM
      1 C1         -1.3248    5.6430   50.1018 C.3     1  ZINC000329637067   -0.1300
      2 C2         -2.4512    4.6720   50.3458 C.2     1  ZINC000329637067    0.2200
      3 C3         -3.2629    4.8171   51.4277 C.2     1  ZINC000329637067   -0.2900
      4 C4         -4.2993    3.9003   51.6273 C.2     1  ZINC000329637067    0.2800
      5 C5         -5.2123    4.0398   52.8181 C.3     1  ZINC000329637067   -0.1200
      6 N6         -4.4761    2.9142   50.7715 N.2     1  ZINC000329637067   -0.5500
      7 C7         -3.6761    2.7770   49.7113 C.2     1  ZINC000329637067    0.6400
      8 O8         -3.8611    1.8556   48.9341 O.2     1  ZINC000329637067   -0.5300
      9 N9         -2.6718    3.6444   49.4849 N.am    1  ZINC000329637067   -0.5000
     10 C10        -1.8078    3.4730   48.3143 C.3     1  ZINC000329637067    0.0700
     11 C11        -0.6661    2.5531   48.6629 C.2     1  ZINC000329637067    0.5100
     12 O12        -0.4944    2.2088   49.8132 O.2     1  ZINC000329637067   -0.5200
     13 N13         0.1638    2.1128   47.6966 N.am    1  ZINC000329637067   -0.6100
     14 C14        -0.0316    2.5209   46.2988 C.3     1  ZINC000329637067    0.1000
     15 C15         1.2783    3.1139   45.7705 C.3     1  ZINC000329637067   -0.1400
     16 C16         2.4106    2.1056   45.9785 C.3     1  ZINC000329637067   -0.1000
     17 C17         2.5764    1.8233   47.4734 C.3     1  ZINC000329637067   -0.1200
     18 H18         2.7916    2.7544   47.9978 H       1  ZINC000329637067    0.1000
     19 C19         3.7133    0.8558   47.6795 C.2     1  ZINC000329637067    0.5300
     20 O20         3.9737    0.0353   46.8252 O.2     1  ZINC000329637067   -0.5300
     21 N21         4.4405    0.9022   48.8134 N.am    1  ZINC000329637067   -0.6200
     22 C22         4.1392    1.8846   49.8667 C.3     1  ZINC000329637067    0.0800
     23 C23         4.0317    1.1424   51.2037 C.3     1  ZINC000329637067    0.0500
     24 O24         5.2031    0.3453   51.3950 O.3     1  ZINC000329637067   -0.3800
     25 C25         5.3820   -0.6774   50.4123 C.3     1  ZINC000329637067    0.0500
     26 C26         5.5551   -0.0321   49.0372 C.3     1  ZINC000329637067    0.0700
     27 C27         1.2848    1.2206   48.0219 C.3     1  ZINC000329637067    0.1200
     28 H28        -1.4287    6.0776   49.1076 H       1  ZINC000329637067    0.0900
     29 H29        -1.3593    6.4350   50.8499 H       1  ZINC000329637067    0.1000
     30 H30        -0.3717    5.1188   50.1713 H       1  ZINC000329637067    0.0900
     31 H31        -3.1085    5.6289   52.1230 H       1  ZINC000329637067    0.1600
     32 H32        -6.0635    4.6665   52.5518 H       1  ZINC000329637067    0.1000
     33 H33        -5.5671    3.0548   53.1215 H       1  ZINC000329637067    0.0900
     34 H34        -4.6667    4.4992   53.6424 H       1  ZINC000329637067    0.0900
     35 H35        -2.3850    3.0418   47.4965 H       1  ZINC000329637067    0.1200
     36 H36        -1.4131    4.4422   48.0091 H       1  ZINC000329637067    0.1300
     37 H37        -0.3075    1.6530   45.6999 H       1  ZINC000329637067    0.0800
     38 H38        -0.8206    3.2710   46.2440 H       1  ZINC000329637067    0.0900
     39 H39         1.1763    3.3323   44.7075 H       1  ZINC000329637067    0.0900
     40 H40         1.5056    4.0329   46.3109 H       1  ZINC000329637067    0.0700
     41 H41         2.1711    1.1783   45.4582 H       1  ZINC000329637067    0.0800
     42 H42         3.3392    2.5154   45.5811 H       1  ZINC000329637067    0.0800
     43 H43         4.9394    2.6228   49.9199 H       1  ZINC000329637067    0.0800
     44 H44         3.1947    2.3817   49.6458 H       1  ZINC000329637067    0.1000
     45 H45         3.9464    1.8649   52.0154 H       1  ZINC000329637067    0.1100
     46 H46         3.1516    0.4994   51.1935 H       1  ZINC000329637067    0.0600
     47 H47         6.2681   -1.2641   50.6546 H       1  ZINC000329637067    0.1100
     48 H48         4.5069   -1.3269   50.3992 H       1  ZINC000329637067    0.0600
     49 H49         5.5503   -0.8029   48.2667 H       1  ZINC000329637067    0.1000
     50 H50         6.4974    0.5148   49.0043 H       1  ZINC000329637067    0.0800
     51 H51         1.3637    1.1099   49.1035 H       1  ZINC000329637067    0.1000
     52 H52         1.1133    0.2461   47.5645 H       1  ZINC000329637067    0.0800
@<TRIPOS>BOND
     1     1     2    1
     2     1    28    1
     3     1    29    1
     4     1    30    1
     5     2     9    1
     6     2     3    2
     7     3     4    1
     8     3    31    1
     9     4     5    1
    10     4     6    2
    11     5    32    1
    12     5    33    1
    13     5    34    1
    14     6     7    1
    15     7     8    2
    16     7     9   am
    17     9    10    1
    18    10    11    1
    19    10    35    1
    20    10    36    1
    21    11    12    2
    22    11    13   am
    23    13    27    1
    24    13    14    1
    25    14    15    1
    26    14    37    1
    27    14    38    1
    28    15    16    1
    29    15    39    1
    30    15    40    1
    31    16    17    1
    32    16    41    1
    33    16    42    1
    34    17    18    1
    35    17    19    1
    36    17    27    1
    37    19    20    2
    38    19    21   am
    39    21    26    1
    40    21    22    1
    41    22    23    1
    42    22    43    1
    43    22    44    1
    44    23    24    1
    45    23    45    1
    46    23    46    1
    47    24    25    1
    48    25    26    1
    49    25    47    1
    50    25    48    1
    51    26    49    1
    52    26    50    1
    53    27    51    1
    54    27    52    1
@<TRIPOS>SUBSTRUCTURE
     1 ZINC000329637067        1 TEMP              0 ****  ****    0 ROOT


##########                                Name:    ZINC000463474628
##########                DOCK_Rotatable_Bonds:                   5
##########                         Heavy_Atoms:                  25
##########                    Molecular_Weight:              407.35
##########                DOCK_Rotatable_Bonds:                   5
##########                       Formal_Charge:           0.0200004
##########                     HBond_Acceptors:                   4
##########                        HBond_Donors:                   0
##########                         Heavy_Atoms:                  25
##########                          Grid_Score:          -27.318768
##########                     Grid_vdw_energy:          -26.147671
##########                      Grid_es_energy:           -1.171098
##########           Internal_energy_repulsive:           26.361496

@<TRIPOS>MOLECULE
ZINC000463474628
 52 54 1 0 0
SMALL
USER_CHARGES


@<TRIPOS>ATOM
      1 C1         -6.1918    3.9514   54.0278 C.3     1  ZINC000463474628   -0.1400
      2 C2         -6.7104    4.8762   52.9247 C.3     1  ZINC000463474628   -0.1300
      3 C3         -6.6499    4.1495   51.5797 C.3     1  ZINC000463474628    0.1400
      4 H4         -6.9920    4.8121   50.7848 H       1  ZINC000463474628    0.0800
      5 C5         -7.5339    2.8854   51.6260 C.3     1  ZINC000463474628   -0.1300
      6 C6         -6.7043    1.8515   50.8196 C.3     1  ZINC000463474628   -0.1300
      7 C7         -5.2571    2.2386   51.2136 C.3     1  ZINC000463474628    0.0900
      8 N8         -5.2723    3.7130   51.3087 N.am    1  ZINC000463474628   -0.6100
      9 C9         -4.2018    4.5201   51.1716 C.2     1  ZINC000463474628    0.5300
     10 O10        -4.3318    5.7219   51.2697 O.2     1  ZINC000463474628   -0.5100
     11 C11        -2.8430    3.9291   50.8964 C.3     1  ZINC000463474628   -0.1200
     12 H12        -2.8008    2.9142   51.2916 H       1  ZINC000463474628    0.1000
     13 C13        -1.7679    4.7848   51.5702 C.3     1  ZINC000463474628   -0.1000
     14 C14        -0.3903    4.1673   51.3189 C.3     1  ZINC000463474628   -0.1300
     15 C15        -0.1138    4.1417   49.8122 C.3     1  ZINC000463474628    0.0900
     16 N16        -1.2192    3.4449   49.1405 N.am    1  ZINC000463474628   -0.6000
     17 C17        -0.9763    2.4070   48.3155 C.2     1  ZINC000463474628    0.5700
     18 O18        -1.8996    1.8387   47.7658 O.2     1  ZINC000463474628   -0.5200
     19 C19         0.4125    1.9599   48.0796 C.ar    1  ZINC000463474628   -0.1200
     20 C20         1.0990    1.2538   49.0688 C.ar    1  ZINC000463474628   -0.0800
     21 C21         2.3949    0.8393   48.8427 C.ar    1  ZINC000463474628   -0.1000
     22 C22         3.0150    1.1223   47.6375 C.ar    1  ZINC000463474628   -0.0700
     23 Br23        4.7917    0.5498   47.3354 Br      1  ZINC000463474628   -0.0400
     24 C24         2.3390    1.8225   46.6521 C.ar    1  ZINC000463474628   -0.0900
     25 C25         1.0412    2.2372   46.8641 C.ar    1  ZINC000463474628   -0.0300
     26 C26         0.3072    2.9992   45.7910 C.3     1  ZINC000463474628   -0.1300
     27 C27        -2.5947    3.9000   49.3850 C.3     1  ZINC000463474628    0.1200
     28 H28        -6.9945    3.2909   54.3554 H       1  ZINC000463474628    0.0700
     29 H29        -5.3648    3.3549   53.6428 H       1  ZINC000463474628    0.0600
     30 H30        -5.8466    4.5497   54.8710 H       1  ZINC000463474628    0.0300
     31 H31        -7.7415    5.1563   53.1404 H       1  ZINC000463474628    0.0600
     32 H32        -6.0918    5.7726   52.8815 H       1  ZINC000463474628    0.0700
     33 H33        -7.6740    2.5502   52.6537 H       1  ZINC000463474628    0.0800
     34 H34        -8.4946    3.0687   51.1447 H       1  ZINC000463474628    0.0800
     35 H35        -6.9360    0.8339   51.1343 H       1  ZINC000463474628    0.0900
     36 H36        -6.8634    1.9731   49.7482 H       1  ZINC000463474628    0.0800
     37 H37        -4.9950    1.7980   52.1754 H       1  ZINC000463474628    0.0700
     38 H38        -4.5555    1.9168   50.4441 H       1  ZINC000463474628    0.0800
     39 H39        -1.7947    5.7931   51.1572 H       1  ZINC000463474628    0.0800
     40 H40        -1.9567    4.8268   52.6429 H       1  ZINC000463474628    0.0700
     41 H41         0.3726    4.7642   51.8186 H       1  ZINC000463474628    0.0800
     42 H42        -0.3709    3.1500   51.7097 H       1  ZINC000463474628    0.0700
     43 H43        -0.0431    5.1623   49.4363 H       1  ZINC000463474628    0.0800
     44 H44         0.8206    3.6140   49.6211 H       1  ZINC000463474628    0.1000
     45 H45         0.6165    1.0329   50.0094 H       1  ZINC000463474628    0.1400
     46 H46         2.9272    0.2932   49.6074 H       1  ZINC000463474628    0.1400
     47 H47         2.8281    2.0407   45.7142 H       1  ZINC000463474628    0.1400
     48 H48        -0.2915    2.3070   45.1988 H       1  ZINC000463474628    0.0700
     49 H49        -0.3451    3.7402   46.2529 H       1  ZINC000463474628    0.0900
     50 H50         1.0272    3.5013   45.1447 H       1  ZINC000463474628    0.0700
     51 H51        -3.2965    3.2133   48.9117 H       1  ZINC000463474628    0.1000
     52 H52        -2.7267    4.9011   48.9744 H       1  ZINC000463474628    0.0800
@<TRIPOS>BOND
     1     1     2    1
     2     1    28    1
     3     1    29    1
     4     1    30    1
     5     2     3    1
     6     2    31    1
     7     2    32    1
     8     3     4    1
     9     3     8    1
    10     3     5    1
    11     5     6    1
    12     5    33    1
    13     5    34    1
    14     6     7    1
    15     6    35    1
    16     6    36    1
    17     7     8    1
    18     7    37    1
    19     7    38    1
    20     8     9   am
    21     9    10    2
    22     9    11    1
    23    11    12    1
    24    11    27    1
    25    11    13    1
    26    13    14    1
    27    13    39    1
    28    13    40    1
    29    14    15    1
    30    14    41    1
    31    14    42    1
    32    15    16    1
    33    15    43    1
    34    15    44    1
    35    16    17   am
    36    16    27    1
    37    17    18    2
    38    17    19    1
    39    19    25   ar
    40    19    20   ar
    41    20    21   ar
    42    20    45    1
    43    21    22   ar
    44    21    46    1
    45    22    23    1
    46    22    24   ar
    47    24    25   ar
    48    24    47    1
    49    25    26    1
    50    26    48    1
    51    26    49    1
    52    26    50    1
    53    27    51    1
    54    27    52    1
@<TRIPOS>SUBSTRUCTURE
     1 ZINC000463474628        1 TEMP              0 ****  ****    0 ROOT


##########                                Name:    ZINC000080099940
##########                DOCK_Rotatable_Bonds:                   4
##########                         Heavy_Atoms:                  26
##########                    Molecular_Weight:             343.388
##########                DOCK_Rotatable_Bonds:                   4
##########                       Formal_Charge:        -3.42727e-07
##########                     HBond_Acceptors:                   6
##########                        HBond_Donors:                   1
##########                         Heavy_Atoms:                  26
##########                          Grid_Score:          -27.315802
##########                     Grid_vdw_energy:          -27.293264
##########                      Grid_es_energy:           -0.022537
##########           Internal_energy_repulsive:            2.658056

@<TRIPOS>MOLECULE
ZINC000080099940
 43 46 1 0 0
SMALL
USER_CHARGES


@<TRIPOS>ATOM
      1 C1         -0.6039    3.3809   47.6864 C.3     1  ZINC000080099940   -0.1100
      2 C2         -1.5539    3.3498   48.8560 C.2     1  ZINC000080099940   -0.0700
      3 C3         -2.6532    2.5497   48.8220 C.2     1  ZINC000080099940   -0.0900
      4 C4         -3.5307    2.5338   49.9257 C.2     1  ZINC000080099940    0.2300
      5 N5         -4.6513    1.8669   50.1599 N.2     1  ZINC000080099940   -0.4800
      6 C6         -5.1178    2.2036   51.3728 C.2     1  ZINC000080099940    0.1000
      7 C7         -6.3511    1.6759   52.0067 C.ar    1  ZINC000080099940   -0.0200
      8 C8         -6.7908    0.3865   51.7115 C.ar    1  ZINC000080099940   -0.0800
      9 C9         -7.9369   -0.1021   52.3020 C.ar    1  ZINC000080099940   -0.1200
     10 C10        -8.6540    0.6903   53.1907 C.ar    1  ZINC000080099940    0.1500
     11 N11        -9.8158    0.1932   53.7877 N.am    1  ZINC000080099940   -0.6500
     12 C12       -10.9879    0.2411   53.1242 C.2     1  ZINC000080099940    0.5700
     13 O13       -11.0347    0.7165   52.0071 O.2     1  ZINC000080099940   -0.5000
     14 C14       -12.2215   -0.2868   53.7581 C.ar    1  ZINC000080099940    0.1300
     15 C15       -13.4742    0.2059   53.3911 C.ar    1  ZINC000080099940   -0.1700
     16 C16       -14.5964   -0.3221   54.0141 C.ar    1  ZINC000080099940    0.1600
     17 N17       -14.4420   -1.2660   54.9264 N.ar    1  ZINC000080099940   -0.5000
     18 C18       -13.2426   -1.7095   55.2501 C.ar    1  ZINC000080099940    0.3200
     19 C19       -13.1188   -2.7871   56.2963 C.3     1  ZINC000080099940   -0.0900
     20 N20       -12.1517   -1.2423   54.6825 N.ar    1  ZINC000080099940   -0.5000
     21 C21        -8.2172    1.9762   53.4868 C.ar    1  ZINC000080099940   -0.1400
     22 C22        -7.0687    2.4667   52.9026 C.ar    1  ZINC000080099940   -0.0700
     23 C23        -4.2643    3.1124   51.9222 C.2     1  ZINC000080099940   -0.0900
     24 N24        -3.2638    3.3232   51.0148 N.pl3   1  ZINC000080099940   -0.3600
     25 C25        -2.1564    4.1214   51.0352 C.2     1  ZINC000080099940    0.0600
     26 C26        -1.3047    4.1425   49.9885 C.2     1  ZINC000080099940   -0.1400
     27 H27         0.2120    4.0716   47.8994 H       1  ZINC000080099940    0.0700
     28 H28        -0.2005    2.3823   47.5193 H       1  ZINC000080099940    0.0800
     29 H29        -1.1364    3.7117   46.7946 H       1  ZINC000080099940    0.0800
     30 H30        -2.8524    1.9330   47.9580 H       1  ZINC000080099940    0.1500
     31 H31        -6.2342   -0.2293   51.0205 H       1  ZINC000080099940    0.1300
     32 H32        -8.2778   -1.1011   52.0736 H       1  ZINC000080099940    0.1400
     33 H33        -9.7784   -0.1865   54.6795 H       1  ZINC000080099940    0.4200
     34 H34       -13.5681    0.9783   52.6421 H       1  ZINC000080099940    0.1600
     35 H35       -15.5831    0.0339   53.7569 H       1  ZINC000080099940    0.1800
     36 H36       -13.1572   -3.7653   55.8169 H       1  ZINC000080099940    0.0900
     37 H37       -12.1699   -2.6766   56.8212 H       1  ZINC000080099940    0.0900
     38 H38       -13.9400   -2.6987   57.0078 H       1  ZINC000080099940    0.0900
     39 H39        -8.7759    2.5901   54.1776 H       1  ZINC000080099940    0.1300
     40 H40        -6.7295    3.4658   53.1333 H       1  ZINC000080099940    0.1400
     41 H41        -4.3602    3.5785   52.8917 H       1  ZINC000080099940    0.1900
     42 H42        -1.9576    4.7383   51.8991 H       1  ZINC000080099940    0.1700
     43 H43        -0.4323    4.7785   50.0182 H       1  ZINC000080099940    0.1500
@<TRIPOS>BOND
     1     1     2    1
     2     1    27    1
     3     1    28    1
     4     1    29    1
     5     2    26    1
     6     2     3    2
     7     3     4    1
     8     3    30    1
     9     4    24    1
    10     4     5    2
    11     5     6    1
    12     6     7    1
    13     6    23    2
    14     7    22   ar
    15     7     8   ar
    16     8     9   ar
    17     8    31    1
    18     9    10   ar
    19     9    32    1
    20    10    11    1
    21    10    21   ar
    22    11    12   am
    23    11    33    1
    24    12    13    2
    25    12    14    1
    26    14    20   ar
    27    14    15   ar
    28    15    16   ar
    29    15    34    1
    30    16    17   ar
    31    16    35    1
    32    17    18   ar
    33    18    19    1
    34    18    20   ar
    35    19    36    1
    36    19    37    1
    37    19    38    1
    38    21    22   ar
    39    21    39    1
    40    22    40    1
    41    23    24    1
    42    23    41    1
    43    24    25    1
    44    25    26    2
    45    25    42    1
    46    26    43    1
@<TRIPOS>SUBSTRUCTURE
     1 ZINC000080099940        1 TEMP              0 ****  ****    0 ROOT


##########                                Name:    ZINC001015955459
##########                DOCK_Rotatable_Bonds:                   6
##########                         Heavy_Atoms:                  24
##########                    Molecular_Weight:             347.844
##########                DOCK_Rotatable_Bonds:                   6
##########                       Formal_Charge:          -0.0200002
##########                     HBond_Acceptors:                   6
##########                        HBond_Donors:                   1
##########                         Heavy_Atoms:                  24
##########                          Grid_Score:          -27.294136
##########                     Grid_vdw_energy:          -26.921062
##########                      Grid_es_energy:           -0.373073
##########           Internal_energy_repulsive:           10.223932

@<TRIPOS>MOLECULE
ZINC001015955459
 46 48 1 0 0
SMALL
USER_CHARGES


@<TRIPOS>ATOM
      1 C1        -12.6466   -0.0058   54.2774 C.3     1  ZINC001015955459   -0.1500
      2 C2        -11.3941    0.0015   53.3986 C.3     1  ZINC001015955459   -0.0300
      3 C3        -11.4437   -1.1820   52.4302 C.3     1  ZINC001015955459   -0.1500
      4 C4        -11.3367    1.2884   52.6166 C.2     1  ZINC001015955459    0.0600
      5 C5        -10.2169    1.8962   52.1382 C.2     1  ZINC001015955459   -0.0800
      6 C6         -8.8299    1.4198   52.2878 C.2     1  ZINC001015955459    0.6100
      7 O7         -8.6140    0.2964   52.7007 O.2     1  ZINC001015955459   -0.5300
      8 N8         -7.8010    2.2290   51.9670 N.am    1  ZINC001015955459   -0.7100
      9 C9         -6.4227    1.7549   52.1140 C.3     1  ZINC001015955459    0.1400
     10 H10        -6.3335    1.1199   52.9955 H       1  ZINC001015955459    0.1000
     11 C11        -5.9837    0.9843   50.8518 C.3     1  ZINC001015955459   -0.1300
     12 C12        -4.7828    1.7783   50.2945 C.3     1  ZINC001015955459    0.0200
     13 N13        -4.2419    2.5116   51.4678 N.3     1  ZINC001015955459   -0.4900
     14 C14        -3.4384    3.6656   51.0428 C.3     1  ZINC001015955459    0.0800
     15 C15        -2.1639    3.1812   50.4008 C.ar    1  ZINC001015955459   -0.1100
     16 C16        -1.0656    2.8822   51.1850 C.ar    1  ZINC001015955459   -0.1100
     17 C17         0.1025    2.4330   50.5971 C.ar    1  ZINC001015955459   -0.1000
     18 C18         0.1759    2.2931   49.2242 C.ar    1  ZINC001015955459   -0.1100
     19 C19        -0.9215    2.5974   48.4383 C.ar    1  ZINC001015955459   -0.0300
     20 Cl20       -0.8298    2.4225   46.7135 Cl      1  ZINC001015955459   -0.0700
     21 C21        -2.0916    3.0416   49.0274 C.ar    1  ZINC001015955459   -0.1000
     22 C22        -5.4520    2.9512   52.2143 C.3     1  ZINC001015955459    0.0100
     23 N23       -10.6180    3.0295   51.5009 N.2     1  ZINC001015955459   -0.4600
     24 C24       -11.9130    3.1076   51.5756 C.2     1  ZINC001015955459    0.1800
     25 O25       -12.3805    2.0532   52.2587 O.3     1  ZINC001015955459   -0.1900
     26 H26       -13.5325    0.0767   53.6479 H       1  ZINC001015955459    0.0600
     27 H27       -12.6880   -0.9366   54.8431 H       1  ZINC001015955459    0.0700
     28 H28       -12.6112    0.8373   54.9673 H       1  ZINC001015955459    0.0600
     29 H29       -10.5080   -0.0810   54.0281 H       1  ZINC001015955459    0.1300
     30 H30       -10.5514   -1.1768   51.8042 H       1  ZINC001015955459    0.0600
     31 H31       -11.4852   -2.1128   52.9959 H       1  ZINC001015955459    0.0700
     32 H32       -12.3297   -1.0996   51.8008 H       1  ZINC001015955459    0.0600
     33 H33        -7.9732    3.1255   51.6388 H       1  ZINC001015955459    0.4100
     34 H34        -5.6790   -0.0289   51.1138 H       1  ZINC001015955459    0.0800
     35 H35        -6.7938    0.9588   50.1229 H       1  ZINC001015955459    0.0700
     36 H36        -4.0317    1.0987   49.8917 H       1  ZINC001015955459    0.0900
     37 H37        -5.1131    2.4788   49.5276 H       1  ZINC001015955459    0.0500
     38 H38        -4.0049    4.2580   50.3241 H       1  ZINC001015955459    0.0900
     39 H39        -3.1975    4.2800   51.9104 H       1  ZINC001015955459    0.0900
     40 H40        -1.1212    2.9956   52.2575 H       1  ZINC001015955459    0.1300
     41 H41         0.9589    2.1956   51.2106 H       1  ZINC001015955459    0.1300
     42 H42         1.0899    1.9466   48.7648 H       1  ZINC001015955459    0.1300
     43 H43        -2.9484    3.2798   48.4145 H       1  ZINC001015955459    0.1300
     44 H44        -5.8876    3.8345   51.7473 H       1  ZINC001015955459    0.0700
     45 H45        -5.2049    3.1538   53.2565 H       1  ZINC001015955459    0.0900
     46 H46       -12.5167    3.8995   51.1576 H       1  ZINC001015955459    0.2600
@<TRIPOS>BOND
     1     1     2    1
     2     1    26    1
     3     1    27    1
     4     1    28    1
     5     2     3    1
     6     2     4    1
     7     2    29    1
     8     3    30    1
     9     3    31    1
    10     3    32    1
    11     4    25    1
    12     4     5    2
    13     5     6    1
    14     5    23    1
    15     6     7    2
    16     6     8   am
    17     8     9    1
    18     8    33    1
    19     9    10    1
    20     9    22    1
    21     9    11    1
    22    11    12    1
    23    11    34    1
    24    11    35    1
    25    12    13    1
    26    12    36    1
    27    12    37    1
    28    13    14    1
    29    13    22    1
    30    14    15    1
    31    14    38    1
    32    14    39    1
    33    15    21   ar
    34    15    16   ar
    35    16    17   ar
    36    16    40    1
    37    17    18   ar
    38    17    41    1
    39    18    19   ar
    40    18    42    1
    41    19    20    1
    42    19    21   ar
    43    21    43    1
    44    22    44    1
    45    22    45    1
    46    23    24    2
    47    24    25    1
    48    24    46    1
@<TRIPOS>SUBSTRUCTURE
     1 ZINC001015955459        1 TEMP              0 ****  ****    0 ROOT


##########                                Name:    ZINC001220212140
##########                DOCK_Rotatable_Bonds:                   6
##########                         Heavy_Atoms:                  28
##########                    Molecular_Weight:             379.459
##########                DOCK_Rotatable_Bonds:                   6
##########                       Formal_Charge:         -0.00999925
##########                     HBond_Acceptors:                   6
##########                        HBond_Donors:                   1
##########                         Heavy_Atoms:                  28
##########                          Grid_Score:          -27.272406
##########                     Grid_vdw_energy:          -26.917173
##########                      Grid_es_energy:           -0.355232
##########           Internal_energy_repulsive:           12.002041

@<TRIPOS>MOLECULE
ZINC001220212140
 53 56 1 0 0
SMALL
USER_CHARGES


@<TRIPOS>ATOM
      1 C1          4.1902    2.4391   46.7691 C.3     1  ZINC001220212140   -0.1700
      2 C2          3.0437    1.7216   46.0538 C.3     1  ZINC001220212140    0.0800
      3 H3          3.4308    0.9977   45.3367 H       1  ZINC001220212140    0.1200
      4 C4          2.1058    1.0343   47.0742 C.3     1  ZINC001220212140   -0.1100
      5 C5          1.0518    2.1013   47.2996 C.ar    1  ZINC001220212140   -0.1500
      6 C6          0.0921    2.2593   48.2738 C.ar    1  ZINC001220212140   -0.0700
      7 C7         -0.7555    3.3599   48.2397 C.ar    1  ZINC001220212140    0.1400
      8 N8         -1.7342    3.5264   49.2290 N.am    1  ZINC001220212140   -0.6800
      9 C9         -2.8229    2.7321   49.2404 C.2     1  ZINC001220212140    0.7200
     10 O10        -2.9559    1.8708   48.3925 O.2     1  ZINC001220212140   -0.5700
     11 N11        -3.7640    2.8922   50.1917 N.am    1  ZINC001220212140   -0.6300
     12 C12        -3.7297    3.8892   51.2718 C.3     1  ZINC001220212140    0.0900
     13 C13        -5.0233    3.7172   52.0954 C.3     1  ZINC001220212140   -0.1100
     14 C14        -5.9794    3.0115   51.0976 C.3     1  ZINC001220212140   -0.1300
     15 H15        -6.4510    3.7337   50.4313 H       1  ZINC001220212140    0.1200
     16 C16        -7.0161    2.1967   51.8272 C.2     1  ZINC001220212140    0.5300
     17 O17        -6.7502    1.0753   52.2050 O.2     1  ZINC001220212140   -0.5100
     18 N18        -8.2387    2.7141   52.0597 N.am    1  ZINC001220212140   -0.5700
     19 C19        -8.5598    4.0686   51.6033 C.3     1  ZINC001220212140    0.0700
     20 C20        -9.2012    1.9574   52.7371 C.ar    1  ZINC001220212140    0.1400
     21 C21       -10.3574    1.5546   52.0816 C.ar    1  ZINC001220212140   -0.1100
     22 C22       -11.3055    0.8078   52.7531 C.ar    1  ZINC001220212140   -0.1100
     23 C23       -11.1047    0.4615   54.0767 C.ar    1  ZINC001220212140   -0.1200
     24 C24        -9.9548    0.8614   54.7323 C.ar    1  ZINC001220212140   -0.1100
     25 C25        -8.9997    1.6028   54.0646 C.ar    1  ZINC001220212140   -0.1200
     26 C26        -5.0016    2.1011   50.3179 C.3     1  ZINC001220212140    0.1400
     27 C27        -0.6269    4.2936   47.2207 C.ar    1  ZINC001220212140   -0.1100
     28 C28         0.3336    4.1298   46.2447 C.ar    1  ZINC001220212140   -0.1200
     29 C29         1.1831    3.0269   46.2721 C.ar    1  ZINC001220212140    0.0900
     30 O30         2.1768    2.6674   45.4051 O.3     1  ZINC001220212140   -0.3000
     31 H31         3.7820    3.1660   47.4714 H       1  ZINC001220212140    0.0600
     32 H32         4.7936    1.7103   47.3102 H       1  ZINC001220212140    0.0800
     33 H33         4.8117    2.9522   46.0353 H       1  ZINC001220212140    0.0700
     34 H34         1.6631    0.1329   46.6506 H       1  ZINC001220212140    0.0900
     35 H35         2.6356    0.8086   47.9996 H       1  ZINC001220212140    0.0900
     36 H36        -0.0018    1.5288   49.0637 H       1  ZINC001220212140    0.1400
     37 H37        -1.6280    4.2135   49.9055 H       1  ZINC001220212140    0.4100
     38 H38        -2.8604    3.7180   51.9068 H       1  ZINC001220212140    0.0700
     39 H39        -3.6903    4.8930   50.8486 H       1  ZINC001220212140    0.0700
     40 H40        -4.8444    3.0889   52.9680 H       1  ZINC001220212140    0.1000
     41 H41        -5.4232    4.6867   52.3925 H       1  ZINC001220212140    0.0900
     42 H42        -8.9707    4.0242   50.5947 H       1  ZINC001220212140    0.0700
     43 H43        -9.2934    4.5140   52.2751 H       1  ZINC001220212140    0.0800
     44 H44        -7.6543    4.6753   51.6003 H       1  ZINC001220212140    0.0800
     45 H45       -10.5150    1.8253   51.0481 H       1  ZINC001220212140    0.1200
     46 H46       -12.2048    0.4942   52.2438 H       1  ZINC001220212140    0.1300
     47 H47       -11.8478   -0.1222   54.5996 H       1  ZINC001220212140    0.1300
     48 H48        -9.8013    0.5900   55.7663 H       1  ZINC001220212140    0.1300
     49 H49        -8.1019    1.9148   54.5771 H       1  ZINC001220212140    0.1200
     50 H50        -5.4065    1.8642   49.3340 H       1  ZINC001220212140    0.0900
     51 H51        -4.8056    1.1870   50.8784 H       1  ZINC001220212140    0.0700
     52 H52        -1.2821    5.1517   47.1919 H       1  ZINC001220212140    0.1300
     53 H53         0.4274    4.8608   45.4551 H       1  ZINC001220212140    0.1300
@<TRIPOS>BOND
     1     1     2    1
     2     1    31    1
     3     1    32    1
     4     1    33    1
     5     2     3    1
     6     2    30    1
     7     2     4    1
     8     4     5    1
     9     4    34    1
    10     4    35    1
    11     5    29   ar
    12     5     6   ar
    13     6     7   ar
    14     6    36    1
    15     7     8    1
    16     7    27   ar
    17     8     9   am
    18     8    37    1
    19     9    10    2
    20     9    11   am
    21    11    26    1
    22    11    12    1
    23    12    13    1
    24    12    38    1
    25    12    39    1
    26    13    14    1
    27    13    40    1
    28    13    41    1
    29    14    15    1
    30    14    16    1
    31    14    26    1
    32    16    17    2
    33    16    18   am
    34    18    19    1
    35    18    20    1
    36    19    42    1
    37    19    43    1
    38    19    44    1
    39    20    25   ar
    40    20    21   ar
    41    21    22   ar
    42    21    45    1
    43    22    23   ar
    44    22    46    1
    45    23    24   ar
    46    23    47    1
    47    24    25   ar
    48    24    48    1
    49    25    49    1
    50    26    50    1
    51    26    51    1
    52    27    28   ar
    53    27    52    1
    54    28    29   ar
    55    28    53    1
    56    29    30    1
@<TRIPOS>SUBSTRUCTURE
     1 ZINC001220212140        1 TEMP              0 ****  ****    0 ROOT


##########                                Name:    ZINC000599228306
##########                DOCK_Rotatable_Bonds:                   8
##########                         Heavy_Atoms:                  25
##########                    Molecular_Weight:             379.382
##########                DOCK_Rotatable_Bonds:                   8
##########                       Formal_Charge:        -4.09782e-08
##########                     HBond_Acceptors:                  10
##########                        HBond_Donors:                   1
##########                         Heavy_Atoms:                  25
##########                          Grid_Score:          -27.270525
##########                     Grid_vdw_energy:          -27.046700
##########                      Grid_es_energy:           -0.223825
##########           Internal_energy_repulsive:           37.654762

@<TRIPOS>MOLECULE
ZINC000599228306
 44 44 1 0 0
SMALL
USER_CHARGES


@<TRIPOS>ATOM
      1 C1        -10.1605    0.1227   52.9625 C.3     1  ZINC000599228306    0.0400
      2 O2         -9.1179    1.0779   52.6321 O.3     1  ZINC000599228306   -0.3500
      3 C3         -7.9372    0.5765   52.2202 C.2     1  ZINC000599228306    0.5100
      4 O4         -7.7827   -0.6259   52.1398 O.2     1  ZINC000599228306   -0.4800
      5 C5         -6.8316    1.4877   51.8668 C.ar    1  ZINC000599228306   -0.1500
      6 C6         -6.1265    1.3064   50.6749 C.ar    1  ZINC000599228306   -0.0100
      7 C7         -5.0930    2.1629   50.3507 C.ar    1  ZINC000599228306    0.0700
      8 F8         -4.4100    1.9888   49.1980 F       1  ZINC000599228306   -0.1200
      9 C9         -4.7547    3.2013   51.2044 C.ar    1  ZINC000599228306    0.0100
     10 C10        -5.4479    3.3874   52.3860 C.ar    1  ZINC000599228306   -0.7100
     11 S11        -5.0094    4.7111   53.4631 S.o2    1  ZINC000599228306    2.7000
     12 O12        -5.7737    5.8352   53.0491 O.2     1  ZINC000599228306   -0.9200
     13 O13        -5.0521    4.1856   54.7827 O.2     1  ZINC000599228306   -0.9300
     14 N14        -3.4250    5.0854   53.1599 N.am    1  ZINC000599228306   -1.1000
     15 C15        -2.3842    4.0714   53.3458 C.3     1  ZINC000599228306    0.1600
     16 H16        -2.8110    3.0803   53.1919 H       1  ZINC000599228306    0.1300
     17 C17        -1.2588    4.3046   52.3359 C.3     1  ZINC000599228306   -0.1700
     18 C18        -1.8322    4.1688   54.7447 C.2     1  ZINC000599228306    0.4700
     19 O19        -1.8662    5.2221   55.3356 O.2     1  ZINC000599228306   -0.4900
     20 O20        -1.3025    3.0855   55.3341 O.3     1  ZINC000599228306   -0.3400
     21 C21        -0.7808    3.2551   56.6784 C.3     1  ZINC000599228306    0.1200
     22 C22         0.3365    4.3003   56.6638 C.3     1  ZINC000599228306   -0.1900
     23 C23        -1.9040    3.7223   57.6063 C.3     1  ZINC000599228306   -0.1400
     24 C24        -0.2250    1.9214   57.1819 C.3     1  ZINC000599228306   -0.1800
     25 C25        -6.4884    2.5410   52.7213 C.ar    1  ZINC000599228306    0.2500
     26 F26        -7.1652    2.7243   53.8761 F       1  ZINC000599228306   -0.0900
     27 H27       -11.0561    0.6574   53.2786 H       1  ZINC000599228306    0.1100
     28 H28       -10.3893   -0.4831   52.0857 H       1  ZINC000599228306    0.0700
     29 H29        -9.8184   -0.5233   53.7711 H       1  ZINC000599228306    0.0700
     30 H30        -6.3887    0.4979   50.0085 H       1  ZINC000599228306    0.1700
     31 H31        -3.9456    3.8681   50.9456 H       1  ZINC000599228306    0.1800
     32 H32        -3.1861    5.9761   52.8590 H       1  ZINC000599228306    0.4300
     33 H33        -0.4844    3.5500   52.4743 H       1  ZINC000599228306    0.0900
     34 H34        -1.6581    4.2340   51.3242 H       1  ZINC000599228306    0.0700
     35 H35        -0.8320    5.2957   52.4899 H       1  ZINC000599228306    0.0800
     36 H36        -0.0594    5.2504   56.3051 H       1  ZINC000599228306    0.0600
     37 H37         0.7282    4.4276   57.6730 H       1  ZINC000599228306    0.0700
     38 H38         1.1368    3.9675   56.0028 H       1  ZINC000599228306    0.0800
     39 H39        -2.7000    2.9777   57.6167 H       1  ZINC000599228306    0.0700
     40 H40        -1.5123    3.8496   58.6155 H       1  ZINC000599228306    0.0800
     41 H41        -2.3000    4.6725   57.2477 H       1  ZINC000599228306    0.0700
     42 H42         0.5753    1.5887   56.5209 H       1  ZINC000599228306    0.0800
     43 H43         0.1667    2.0488   58.1911 H       1  ZINC000599228306    0.0700
     44 H44        -1.0209    1.1769   57.1923 H       1  ZINC000599228306    0.0600
@<TRIPOS>BOND
     1     1     2    1
     2     1    27    1
     3     1    28    1
     4     1    29    1
     5     2     3    1
     6     3     4    2
     7     3     5    1
     8     5    25   ar
     9     5     6   ar
    10     6     7   ar
    11     6    30    1
    12     7     8    1
    13     7     9   ar
    14     9    10   ar
    15     9    31    1
    16    10    11    1
    17    10    25   ar
    18    11    12    2
    19    11    13    2
    20    11    14   am
    21    14    15    1
    22    14    32    1
    23    15    16    1
    24    15    17    1
    25    15    18    1
    26    17    33    1
    27    17    34    1
    28    17    35    1
    29    18    19    2
    30    18    20    1
    31    20    21    1
    32    21    22    1
    33    21    23    1
    34    21    24    1
    35    22    36    1
    36    22    37    1
    37    22    38    1
    38    23    39    1
    39    23    40    1
    40    23    41    1
    41    24    42    1
    42    24    43    1
    43    24    44    1
    44    25    26    1
@<TRIPOS>SUBSTRUCTURE
     1 ZINC000599228306        1 TEMP              0 ****  ****    0 ROOT


##########                                Name:    ZINC001058772245
##########                DOCK_Rotatable_Bonds:                  11
##########                         Heavy_Atoms:                  22
##########                    Molecular_Weight:             335.375
##########                DOCK_Rotatable_Bonds:                  11
##########                       Formal_Charge:          0.00999964
##########                     HBond_Acceptors:                   9
##########                        HBond_Donors:                   2
##########                         Heavy_Atoms:                  22
##########                          Grid_Score:          -27.268993
##########                     Grid_vdw_energy:          -27.625750
##########                      Grid_es_energy:            0.356757
##########           Internal_energy_repulsive:           65.006012

@<TRIPOS>MOLECULE
ZINC001058772245
 41 41 1 0 0
SMALL
USER_CHARGES


@<TRIPOS>ATOM
      1 C1         -8.5579    3.2601   53.9973 C.3     1  ZINC001058772245   -0.1700
      2 C2         -9.2504    2.9804   52.6620 C.3     1  ZINC001058772245   -0.1400
      3 C3        -10.1180    4.1802   52.2764 C.3     1  ZINC001058772245   -0.1500
      4 C4         -8.2108    2.7490   51.5958 C.2     1  ZINC001058772245    0.5300
      5 O5         -8.1177    3.5179   50.6626 O.2     1  ZINC001058772245   -0.5200
      6 N6         -7.3844    1.6875   51.6795 N.am    1  ZINC001058772245   -0.5900
      7 C7         -7.4968    0.7588   52.8069 C.3     1  ZINC001058772245    0.0800
      8 C8         -7.7490   -0.6552   52.2796 C.3     1  ZINC001058772245    0.0400
      9 O9         -6.6470   -1.4963   52.6260 O.3     1  ZINC001058772245   -0.5700
     10 C10        -6.3738    1.4625   50.6430 C.3     1  ZINC001058772245    0.1100
     11 C11        -5.1457    2.3281   50.9317 C.3     1  ZINC001058772245    0.1000
     12 N12        -4.1712    2.1696   49.8494 N.am    1  ZINC001058772245   -0.7100
     13 C13        -3.1979    3.0861   49.6794 C.2     1  ZINC001058772245    0.6000
     14 O14        -3.1276    4.0442   50.4255 O.2     1  ZINC001058772245   -0.5300
     15 C15        -2.2193    2.9278   48.5903 C.2     1  ZINC001058772245    0.0000
     16 C16        -1.3428    3.8950   48.2376 C.2     1  ZINC001058772245   -0.2200
     17 S17        -0.3854    3.3257   46.9409 S.3     1  ZINC001058772245    0.2300
     18 C18        -1.2100    1.8303   46.9442 C.2     1  ZINC001058772245    0.0000
     19 N19        -2.1111    1.8133   47.8623 N.2     1  ZINC001058772245   -0.4400
     20 C20       -10.1307    1.7362   52.7947 C.3     1  ZINC001058772245    0.2900
     21 F21       -10.2476    1.3895   54.1450 F       1  ZINC001058772245   -0.1900
     22 F22       -11.3998    2.0047   52.2706 F       1  ZINC001058772245   -0.2000
     23 H23        -9.2745    3.1417   54.8101 H       1  ZINC001058772245    0.0800
     24 H24        -7.7348    2.5585   54.1337 H       1  ZINC001058772245    0.0700
     25 H25        -8.1709    4.2791   53.9997 H       1  ZINC001058772245    0.0900
     26 H26        -9.4805    4.9922   51.9267 H       1  ZINC001058772245    0.0800
     27 H27       -10.8061    3.8906   51.4822 H       1  ZINC001058772245    0.0700
     28 H28       -10.6855    4.5125   53.1457 H       1  ZINC001058772245    0.0900
     29 H29        -6.5712    0.7724   53.3823 H       1  ZINC001058772245    0.0900
     30 H30        -8.3263    1.0618   53.4459 H       1  ZINC001058772245    0.1200
     31 H31        -8.6621   -1.0512   52.7242 H       1  ZINC001058772245    0.0600
     32 H32        -7.8562   -0.6249   51.1954 H       1  ZINC001058772245    0.0700
     33 H33        -6.4989   -1.5784   53.5781 H       1  ZINC001058772245    0.3800
     34 H34        -6.0849    0.4116   50.6393 H       1  ZINC001058772245    0.1000
     35 H35        -6.7859    1.7295   49.6698 H       1  ZINC001058772245    0.0900
     36 H36        -5.4459    3.3737   51.0000 H       1  ZINC001058772245    0.0700
     37 H37        -4.6954    2.0170   51.8744 H       1  ZINC001058772245    0.0700
     38 H38        -4.2264    1.4050   49.2551 H       1  ZINC001058772245    0.4100
     39 H39        -1.2608    4.8677   48.6996 H       1  ZINC001058772245    0.1900
     40 H40        -1.0017    1.0115   46.2716 H       1  ZINC001058772245    0.2100
     41 H41        -9.6781    0.9106   52.2455 H       1  ZINC001058772245    0.1200
@<TRIPOS>BOND
     1     1     2    1
     2     1    23    1
     3     1    24    1
     4     1    25    1
     5     2     3    1
     6     2     4    1
     7     2    20    1
     8     3    26    1
     9     3    27    1
    10     3    28    1
    11     4     5    2
    12     4     6   am
    13     6     7    1
    14     6    10    1
    15     7     8    1
    16     7    29    1
    17     7    30    1
    18     8     9    1
    19     8    31    1
    20     8    32    1
    21     9    33    1
    22    10    11    1
    23    10    34    1
    24    10    35    1
    25    11    12    1
    26    11    36    1
    27    11    37    1
    28    12    13   am
    29    12    38    1
    30    13    14    2
    31    13    15    1
    32    15    19    1
    33    15    16    2
    34    16    17    1
    35    16    39    1
    36    17    18    1
    37    18    19    2
    38    18    40    1
    39    20    21    1
    40    20    22    1
    41    20    41    1
@<TRIPOS>SUBSTRUCTURE
     1 ZINC001058772245        1 TEMP              0 ****  ****    0 ROOT


##########                                Name:    ZINC000951315041
##########                DOCK_Rotatable_Bonds:                   5
##########                         Heavy_Atoms:                  25
##########                    Molecular_Weight:             340.382
##########                DOCK_Rotatable_Bonds:                   5
##########                       Formal_Charge:          0.00999974
##########                     HBond_Acceptors:                   7
##########                        HBond_Donors:                   1
##########                         Heavy_Atoms:                  25
##########                          Grid_Score:          -27.250742
##########                     Grid_vdw_energy:          -26.109299
##########                      Grid_es_energy:           -1.141444
##########           Internal_energy_repulsive:           11.643709

@<TRIPOS>MOLECULE
ZINC000951315041
 45 47 1 0 0
SMALL
USER_CHARGES


@<TRIPOS>ATOM
      1 C1          1.7217    3.9479   43.9212 C.3     1  ZINC000951315041    0.0500
      2 N2          1.5286    3.0959   45.0971 N.am    1  ZINC000951315041   -0.4900
      3 C3          0.3494    3.1196   45.7457 C.2     1  ZINC000951315041    0.1700
      4 C4          0.1455    2.3257   46.8559 C.2     1  ZINC000951315041   -0.2400
      5 C5         -1.1481    2.3552   47.5630 C.2     1  ZINC000951315041    0.5800
      6 O6         -2.0012    1.5278   47.3050 O.2     1  ZINC000951315041   -0.5200
      7 N7         -1.3851    3.2991   48.4954 N.am    1  ZINC000951315041   -0.6000
      8 C8         -0.3644    4.3054   48.8182 C.3     1  ZINC000951315041    0.1100
      9 C9         -0.1180    4.2905   50.3301 C.3     1  ZINC000951315041   -0.1300
     10 C10        -1.4479    4.4870   51.0616 C.3     1  ZINC000951315041   -0.1300
     11 C11        -2.3970    3.3374   50.7155 C.3     1  ZINC000951315041    0.1300
     12 H12        -1.9398    2.3898   51.0000 H       1  ZINC000951315041    0.1000
     13 N13        -3.6580    3.5093   51.4412 N.am    1  ZINC000951315041   -0.7200
     14 C14        -4.6049    2.5519   51.3830 C.2     1  ZINC000951315041    0.5700
     15 O15        -4.4131    1.5466   50.7272 O.2     1  ZINC000951315041   -0.5200
     16 C16        -5.8767    2.7245   52.1168 C.ar    1  ZINC000951315041   -0.1900
     17 C17        -6.8785    1.7495   52.0438 C.ar    1  ZINC000951315041   -0.0100
     18 C18        -8.0502    1.9589   52.7499 C.ar    1  ZINC000951315041   -0.1800
     19 C19        -8.1927    3.1134   53.4980 C.ar    1  ZINC000951315041    0.1300
     20 N20        -7.2311    4.0157   53.5480 N.ar    1  ZINC000951315041   -0.4900
     21 C21        -6.0964    3.8594   52.8986 C.ar    1  ZINC000951315041    0.1400
     22 C22        -2.6714    3.3451   49.2039 C.3     1  ZINC000951315041    0.1000
     23 C23         1.1881    1.4822   47.3105 C.2     1  ZINC000951315041    0.0100
     24 C24         2.3704    1.4748   46.6389 C.2     1  ZINC000951315041   -0.2300
     25 C25         2.5307    2.2981   45.5086 C.2     1  ZINC000951315041    0.5100
     26 O26         3.5891    2.2946   44.9026 O.2     1  ZINC000951315041   -0.5400
     27 H27         2.7256    3.7969   43.5242 H       1  ZINC000951315041    0.1100
     28 H28         0.9868    3.6877   43.1594 H       1  ZINC000951315041    0.0800
     29 H29         1.5966    4.9927   44.2051 H       1  ZINC000951315041    0.0800
     30 H30        -0.4426    3.7647   45.3950 H       1  ZINC000951315041    0.1700
     31 H31         0.5616    4.0677   48.2947 H       1  ZINC000951315041    0.1000
     32 H32        -0.7150    5.2919   48.5148 H       1  ZINC000951315041    0.0700
     33 H33         0.3178    3.3339   50.6182 H       1  ZINC000951315041    0.0700
     34 H34         0.5657    5.0969   50.5953 H       1  ZINC000951315041    0.0900
     35 H35        -1.2719    4.5013   52.1372 H       1  ZINC000951315041    0.0800
     36 H36        -1.8951    5.4324   50.7543 H       1  ZINC000951315041    0.0700
     37 H37        -3.8115    4.3121   51.9635 H       1  ZINC000951315041    0.4000
     38 H38        -6.7407    0.8571   51.4513 H       1  ZINC000951315041    0.1500
     39 H39        -8.8451    1.2285   52.7169 H       1  ZINC000951315041    0.1500
     40 H40        -9.1060    3.2793   54.0500 H       1  ZINC000951315041    0.1600
     41 H41        -5.3327    4.6204   52.9644 H       1  ZINC000951315041    0.1600
     42 H42        -3.2106    4.2534   48.9349 H       1  ZINC000951315041    0.0700
     43 H43        -3.2661    2.4718   48.9361 H       1  ZINC000951315041    0.0900
     44 H44         1.0464    0.8544   48.1778 H       1  ZINC000951315041    0.1400
     45 H45         3.1792    0.8394   46.9685 H       1  ZINC000951315041    0.1600
@<TRIPOS>BOND
     1     1     2    1
     2     1    27    1
     3     1    28    1
     4     1    29    1
     5     2    25   am
     6     2     3    1
     7     3     4    2
     8     3    30    1
     9     4     5    1
    10     4    23    1
    11     5     6    2
    12     5     7   am
    13     7    22    1
    14     7     8    1
    15     8     9    1
    16     8    31    1
    17     8    32    1
    18     9    10    1
    19     9    33    1
    20     9    34    1
    21    10    11    1
    22    10    35    1
    23    10    36    1
    24    11    12    1
    25    11    13    1
    26    11    22    1
    27    13    14   am
    28    13    37    1
    29    14    15    2
    30    14    16    1
    31    16    21   ar
    32    16    17   ar
    33    17    18   ar
    34    17    38    1
    35    18    19   ar
    36    18    39    1
    37    19    20   ar
    38    19    40    1
    39    20    21   ar
    40    21    41    1
    41    22    42    1
    42    22    43    1
    43    23    24    2
    44    23    44    1
    45    24    25    1
    46    24    45    1
    47    25    26    2
@<TRIPOS>SUBSTRUCTURE
     1 ZINC000951315041        1 TEMP              0 ****  ****    0 ROOT


##########                                Name:    ZINC000944933040
##########                DOCK_Rotatable_Bonds:                   4
##########                         Heavy_Atoms:                  26
##########                    Molecular_Weight:             354.449
##########                DOCK_Rotatable_Bonds:                   4
##########                       Formal_Charge:           0.0100002
##########                     HBond_Acceptors:                   5
##########                        HBond_Donors:                   0
##########                         Heavy_Atoms:                  26
##########                          Grid_Score:          -27.250397
##########                     Grid_vdw_energy:          -25.606153
##########                      Grid_es_energy:           -1.644244
##########           Internal_energy_repulsive:            9.445111

@<TRIPOS>MOLECULE
ZINC000944933040
 52 57 1 0 0
SMALL
USER_CHARGES


@<TRIPOS>ATOM
      1 O1         -2.5817    2.2530   47.4575 O.2     1  ZINC000944933040   -0.5200
      2 C2         -1.7083    2.4993   48.2672 C.2     1  ZINC000944933040    0.6400
      3 C3         -0.3389    2.5471   47.8510 C.1     1  ZINC000944933040   -0.2200
      4 C4          0.7837    2.5862   47.5098 C.1     1  ZINC000944933040   -0.0400
      5 C5          2.1913    2.6353   47.0820 C.3     1  ZINC000944933040   -0.0700
      6 C6          3.1664    1.6623   47.7481 C.3     1  ZINC000944933040   -0.1600
      7 C7          2.7335    1.4386   46.2978 C.3     1  ZINC000944933040   -0.1600
      8 N8         -2.0297    2.7328   49.5551 N.am    1  ZINC000944933040   -0.6000
      9 C9         -3.4302    2.6803   49.9946 C.3     1  ZINC000944933040    0.1100
     10 C10        -3.7860    4.0113   50.6677 C.3     1  ZINC000944933040   -0.1200
     11 C11        -2.7528    4.3165   51.7494 C.3     1  ZINC000944933040   -0.0900
     12 C12        -3.1275    5.5102   52.6386 C.3     1  ZINC000944933040    0.1200
     13 N13        -2.6518    4.6857   53.7674 N.am    1  ZINC000944933040   -0.6400
     14 C14        -2.1783    4.9560   55.0001 C.2     1  ZINC000944933040    0.5500
     15 O15        -2.0787    6.1058   55.3727 O.2     1  ZINC000944933040   -0.5300
     16 C16        -1.7727    3.8295   55.9153 C.3     1  ZINC000944933040   -0.1300
     17 H17        -2.2648    2.9014   55.6244 H       1  ZINC000944933040    0.1100
     18 C18        -2.0900    4.1800   57.3914 C.3     1  ZINC000944933040   -0.1300
     19 C19        -0.6825    4.1644   58.0598 C.3     1  ZINC000944933040    0.0900
     20 H20        -0.5993    4.7306   58.9874 H       1  ZINC000944933040    0.1300
     21 O21         0.1632    4.6264   56.9558 O.3     1  ZINC000944933040   -0.3600
     22 C22        -0.2244    3.6546   55.9227 C.3     1  ZINC000944933040    0.1200
     23 H23         0.2749    3.7642   54.9600 H       1  ZINC000944933040    0.1400
     24 C24         0.0354    2.3070   56.6606 C.3     1  ZINC000944933040   -0.2000
     25 H25        -0.2959    1.3855   56.1820 H       1  ZINC000944933040    0.1200
     26 C26         1.1714    2.2774   57.6852 C.3     1  ZINC000944933040   -0.1300
     27 C27        -0.2897    2.6598   58.1580 C.3     1  ZINC000944933040   -0.2000
     28 H28        -0.8401    1.9992   58.8279 H       1  ZINC000944933040    0.1300
     29 C29        -2.9035    3.4464   53.0051 C.3     1  ZINC000944933040    0.1100
     30 C30        -1.3236    4.3762   51.2159 C.3     1  ZINC000944933040   -0.1100
     31 C31        -0.9836    3.0372   50.5403 C.3     1  ZINC000944933040    0.1100
     32 H32         2.5679    3.6231   46.8169 H       1  ZINC000944933040    0.1400
     33 H33         4.1848    2.0102   47.9214 H       1  ZINC000944933040    0.1100
     34 H34         2.7655    0.9860   48.5030 H       1  ZINC000944933040    0.1000
     35 H35         2.0479    0.6150   46.0986 H       1  ZINC000944933040    0.1000
     36 H36         3.4671    1.6392   45.5169 H       1  ZINC000944933040    0.1100
     37 H37        -4.0781    2.5221   49.1325 H       1  ZINC000944933040    0.0900
     38 H38        -3.5596    1.8649   50.7062 H       1  ZINC000944933040    0.0800
     39 H39        -3.7814    4.8084   49.9241 H       1  ZINC000944933040    0.0800
     40 H40        -4.7755    3.9384   51.1190 H       1  ZINC000944933040    0.0900
     41 H41        -2.5235    6.3993   52.4583 H       1  ZINC000944933040    0.0800
     42 H42        -4.1970    5.7189   52.6665 H       1  ZINC000944933040    0.0900
     43 H43        -2.5414    5.1694   57.4650 H       1  ZINC000944933040    0.0800
     44 H44        -2.7374    3.4248   57.8370 H       1  ZINC000944933040    0.0900
     45 H45         1.5448    1.3004   57.9923 H       1  ZINC000944933040    0.1000
     46 H46         1.9195    3.0681   57.6280 H       1  ZINC000944933040    0.1000
     47 H47        -3.9064    3.0419   53.1421 H       1  ZINC000944933040    0.0900
     48 H48        -2.1215    2.6954   53.1161 H       1  ZINC000944933040    0.0800
     49 H49        -1.2390    5.1850   50.4902 H       1  ZINC000944933040    0.0800
     50 H50        -0.6337    4.5520   52.0412 H       1  ZINC000944933040    0.0800
     51 H51        -0.9416    2.2489   51.2920 H       1  ZINC000944933040    0.0700
     52 H52        -0.0203    3.1163   50.0364 H       1  ZINC000944933040    0.1000
@<TRIPOS>BOND
     1     1     2    2
     2     2     3    1
     3     2     8   am
     4     3     4    3
     5     4     5    1
     6     5     7    1
     7     5     6    1
     8     5    32    1
     9     6     7    1
    10     6    33    1
    11     6    34    1
    12     7    35    1
    13     7    36    1
    14     8    31    1
    15     8     9    1
    16     9    10    1
    17     9    37    1
    18     9    38    1
    19    10    11    1
    20    10    39    1
    21    10    40    1
    22    11    29    1
    23    11    12    1
    24    11    30    1
    25    12    13    1
    26    12    41    1
    27    12    42    1
    28    13    14   am
    29    13    29    1
    30    14    15    2
    31    14    16    1
    32    16    17    1
    33    16    22    1
    34    16    18    1
    35    18    19    1
    36    18    43    1
    37    18    44    1
    38    19    20    1
    39    19    27    1
    40    19    21    1
    41    21    22    1
    42    22    23    1
    43    22    24    1
    44    24    25    1
    45    24    27    1
    46    24    26    1
    47    26    27    1
    48    26    45    1
    49    26    46    1
    50    27    28    1
    51    29    47    1
    52    29    48    1
    53    30    31    1
    54    30    49    1
    55    30    50    1
    56    31    51    1
    57    31    52    1
@<TRIPOS>SUBSTRUCTURE
     1 ZINC000944933040        1 TEMP              0 ****  ****    0 ROOT


##########                                Name:    ZINC000504638019
##########                DOCK_Rotatable_Bonds:                   8
##########                         Heavy_Atoms:                  24
##########                    Molecular_Weight:             328.454
##########                DOCK_Rotatable_Bonds:                   8
##########                       Formal_Charge:        -1.49012e-08
##########                     HBond_Acceptors:                   4
##########                        HBond_Donors:                   1
##########                         Heavy_Atoms:                  24
##########                          Grid_Score:          -27.246918
##########                     Grid_vdw_energy:          -26.985981
##########                      Grid_es_energy:           -0.260937
##########           Internal_energy_repulsive:           15.554217

@<TRIPOS>MOLECULE
ZINC000504638019
 52 53 1 0 0
SMALL
USER_CHARGES


@<TRIPOS>ATOM
      1 C1          1.9024    2.0741   47.7612 C.3     1  ZINC000504638019   -0.1200
      2 C2          0.6397    2.3439   48.5383 C.ar    1  ZINC000504638019   -0.0900
      3 C3          0.6892    2.4753   49.9135 C.ar    1  ZINC000504638019   -0.1200
      4 C4         -0.4690    2.7228   50.6263 C.ar    1  ZINC000504638019   -0.1100
      5 C5         -1.6768    2.8392   49.9639 C.ar    1  ZINC000504638019   -0.0900
      6 C6         -2.9395    3.1085   50.7410 C.3     1  ZINC000504638019   -0.0600
      7 H7         -2.8150    2.7634   51.7674 H       1  ZINC000504638019    0.0900
      8 C8         -3.2286    4.6110   50.7396 C.3     1  ZINC000504638019   -0.1500
      9 C9         -4.1072    2.3639   50.0906 C.3     1  ZINC000504638019    0.1300
     10 N10        -5.0426    1.9215   51.1277 N.am    1  ZINC000504638019   -0.7000
     11 C11        -6.2484    1.4287   50.7818 C.2     1  ZINC000504638019    0.5100
     12 O12        -6.5587    1.3501   49.6113 O.2     1  ZINC000504638019   -0.5100
     13 C13        -7.2034    0.9790   51.8398 C.2     1  ZINC000504638019    0.5100
     14 O14        -7.3272   -0.2034   52.0826 O.2     1  ZINC000504638019   -0.5200
     15 N15        -7.9271    1.8869   52.5243 N.am    1  ZINC000504638019   -0.5800
     16 C16        -8.8632    1.4460   53.5614 C.3     1  ZINC000504638019    0.0600
     17 C17        -7.7776    3.3144   52.2313 C.3     1  ZINC000504638019    0.1100
     18 C18        -8.5764    3.6633   50.9739 C.3     1  ZINC000504638019   -0.1000
     19 H19        -8.2504    3.0335   50.1462 H       1  ZINC000504638019    0.0800
     20 C20        -8.3575    5.1353   50.6174 C.3     1  ZINC000504638019   -0.0800
     21 C21        -9.3294    5.5601   49.5557 C.2     1  ZINC000504638019   -0.1500
     22 C22       -10.4055    4.9069   49.2545 C.2     1  ZINC000504638019   -0.1600
     23 C23       -10.8266    3.6283   49.9177 C.3     1  ZINC000504638019   -0.0900
     24 C24       -10.0715    3.4398   51.2342 C.3     1  ZINC000504638019   -0.1100
     25 C25        -1.7261    2.7092   48.5885 C.ar    1  ZINC000504638019   -0.1100
     26 C26        -0.5672    2.4655   47.8753 C.ar    1  ZINC000504638019   -0.1200
     27 H27         2.3626    3.0201   47.4759 H       1  ZINC000504638019    0.0700
     28 H28         2.5957    1.5051   48.3807 H       1  ZINC000504638019    0.0700
     29 H29         1.6623    1.5020   46.8650 H       1  ZINC000504638019    0.0700
     30 H30         1.6327    2.3843   50.4310 H       1  ZINC000504638019    0.1200
     31 H31        -0.4304    2.8247   51.7008 H       1  ZINC000504638019    0.1200
     32 H32        -4.1419    4.8057   51.3017 H       1  ZINC000504638019    0.0600
     33 H33        -2.3967    5.1414   51.2030 H       1  ZINC000504638019    0.0600
     34 H34        -3.3530    4.9561   49.7133 H       1  ZINC000504638019    0.0600
     35 H35        -4.6215    3.0294   49.3974 H       1  ZINC000504638019    0.0800
     36 H36        -3.7287    1.4970   49.5489 H       1  ZINC000504638019    0.0800
     37 H37        -4.7941    1.9832   52.0633 H       1  ZINC000504638019    0.4100
     38 H38        -8.3253    1.2999   54.4981 H       1  ZINC000504638019    0.0600
     39 H39        -9.6349    2.2032   53.7000 H       1  ZINC000504638019    0.0700
     40 H40        -9.3259    0.5069   53.2579 H       1  ZINC000504638019    0.1100
     41 H41        -8.1504    3.8990   53.0724 H       1  ZINC000504638019    0.0900
     42 H42        -6.7246    3.5436   52.0680 H       1  ZINC000504638019    0.0900
     43 H43        -8.5035    5.7481   51.5070 H       1  ZINC000504638019    0.0800
     44 H44        -7.3400    5.2708   50.2508 H       1  ZINC000504638019    0.0600
     45 H45        -9.1179    6.4672   49.0092 H       1  ZINC000504638019    0.1000
     46 H46       -11.0402    5.3072   48.4776 H       1  ZINC000504638019    0.1000
     47 H47       -11.8980    3.6600   50.1161 H       1  ZINC000504638019    0.0700
     48 H48       -10.6083    2.7896   49.2570 H       1  ZINC000504638019    0.0700
     49 H49       -10.2361    2.4298   51.6096 H       1  ZINC000504638019    0.0700
     50 H50       -10.4227    4.1676   51.9657 H       1  ZINC000504638019    0.0700
     51 H51        -2.6695    2.8005   48.0709 H       1  ZINC000504638019    0.1200
     52 H52        -0.6057    2.3639   46.8008 H       1  ZINC000504638019    0.1200
@<TRIPOS>BOND
     1     1     2    1
     2     1    27    1
     3     1    28    1
     4     1    29    1
     5     2    26   ar
     6     2     3   ar
     7     3     4   ar
     8     3    30    1
     9     4     5   ar
    10     4    31    1
    11     5     6    1
    12     5    25   ar
    13     6     7    1
    14     6     8    1
    15     6     9    1
    16     8    32    1
    17     8    33    1
    18     8    34    1
    19     9    10    1
    20     9    35    1
    21     9    36    1
    22    10    11   am
    23    10    37    1
    24    11    12    2
    25    11    13    1
    26    13    14    2
    27    13    15   am
    28    15    16    1
    29    15    17    1
    30    16    38    1
    31    16    39    1
    32    16    40    1
    33    17    18    1
    34    17    41    1
    35    17    42    1
    36    18    19    1
    37    18    24    1
    38    18    20    1
    39    20    21    1
    40    20    43    1
    41    20    44    1
    42    21    22    2
    43    21    45    1
    44    22    23    1
    45    22    46    1
    46    23    24    1
    47    23    47    1
    48    23    48    1
    49    24    49    1
    50    24    50    1
    51    25    26   ar
    52    25    51    1
    53    26    52    1
@<TRIPOS>SUBSTRUCTURE
     1 ZINC000504638019        1 TEMP              0 ****  ****    0 ROOT


##########                                Name:    ZINC001011267435
##########                DOCK_Rotatable_Bonds:                   7
##########                         Heavy_Atoms:                  24
##########                    Molecular_Weight:             331.458
##########                DOCK_Rotatable_Bonds:                   7
##########                       Formal_Charge:        -4.47035e-08
##########                     HBond_Acceptors:                   5
##########                        HBond_Donors:                   0
##########                         Heavy_Atoms:                  24
##########                          Grid_Score:          -27.231325
##########                     Grid_vdw_energy:          -27.373085
##########                      Grid_es_energy:            0.141760
##########           Internal_energy_repulsive:           35.229771

@<TRIPOS>MOLECULE
ZINC001011267435
 53 54 1 0 0
SMALL
USER_CHARGES


@<TRIPOS>ATOM
      1 C1         -7.2241   -0.9022   51.6752 C.3     1  ZINC001011267435   -0.1500
      2 C2         -6.6274    0.4489   51.2762 C.3     1  ZINC001011267435   -0.1200
      3 C3         -6.9252    1.4800   52.3666 C.3     1  ZINC001011267435   -0.0700
      4 C4         -6.2486    2.7825   52.0247 C.ar    1  ZINC001011267435    0.1300
      5 C5         -4.8691    2.8515   52.0153 C.ar    1  ZINC001011267435   -0.1200
      6 C6         -4.2532    4.0659   51.6965 C.ar    1  ZINC001011267435   -0.0800
      7 C7         -2.7770    4.1877   51.6732 C.2     1  ZINC001011267435    0.5600
      8 O8         -2.1690    4.4066   52.7024 O.2     1  ZINC001011267435   -0.5200
      9 N9         -2.1081    4.0558   50.5105 N.am    1  ZINC001011267435   -0.6100
     10 C10        -0.6433    4.1682   50.4734 C.3     1  ZINC001011267435    0.0700
     11 C11        -0.0705    2.8987   49.8312 C.3     1  ZINC001011267435    0.1000
     12 N12        -0.7929    2.6394   48.5779 N.am    1  ZINC001011267435   -0.6200
     13 C13        -0.1241    2.5066   47.4154 C.2     1  ZINC001011267435    0.5300
     14 O14        -0.7313    2.2929   46.3875 O.2     1  ZINC001011267435   -0.5300
     15 C15         1.3781    2.6238   47.3926 C.3     1  ZINC001011267435   -0.1100
     16 H16         1.6851    3.4781   47.9959 H       1  ZINC001011267435    0.0900
     17 C17         1.8527    2.8205   45.9514 C.3     1  ZINC001011267435   -0.1500
     18 C18         1.9981    1.3470   47.9638 C.3     1  ZINC001011267435   -0.0800
     19 C19         1.8641    0.2144   46.9439 C.3     1  ZINC001011267435   -0.1500
     20 C20         3.4785    1.5895   48.2650 C.3     1  ZINC001011267435   -0.1500
     21 C21        -2.2578    2.5270   48.6150 C.3     1  ZINC001011267435    0.0900
     22 C22        -2.8301    3.7909   49.2582 C.3     1  ZINC001011267435    0.1000
     23 C23        -5.0692    5.1615   51.3998 C.ar    1  ZINC001011267435   -0.1600
     24 C24        -6.4415    5.0031   51.4329 C.ar    1  ZINC001011267435    0.1100
     25 N25        -6.9812    3.8389   51.7334 N.ar    1  ZINC001011267435   -0.4600
     26 H26        -6.7828   -1.2306   52.6162 H       1  ZINC001011267435    0.0600
     27 H27        -8.3028   -0.8016   51.7953 H       1  ZINC001011267435    0.0500
     28 H28        -7.0119   -1.6367   50.8983 H       1  ZINC001011267435    0.0600
     29 H29        -5.5487    0.3485   51.1561 H       1  ZINC001011267435    0.0700
     30 H30        -7.0687    0.7775   50.3352 H       1  ZINC001011267435    0.0600
     31 H31        -8.0017    1.6366   52.4342 H       1  ZINC001011267435    0.0800
     32 H32        -6.5502    1.1160   53.3231 H       1  ZINC001011267435    0.0900
     33 H33        -4.2750    1.9809   52.2511 H       1  ZINC001011267435    0.1400
     34 H34        -0.3579    5.0381   49.8818 H       1  ZINC001011267435    0.0800
     35 H35        -0.2584    4.2705   51.4880 H       1  ZINC001011267435    0.1100
     36 H36         0.9892    3.0418   49.6196 H       1  ZINC001011267435    0.1100
     37 H37        -0.2001    2.0552   50.5093 H       1  ZINC001011267435    0.0700
     38 H38         2.9423    2.8223   45.9246 H       1  ZINC001011267435    0.0800
     39 H39         1.4752    2.0080   45.3305 H       1  ZINC001011267435    0.0600
     40 H40         1.4783    3.7714   45.5722 H       1  ZINC001011267435    0.0600
     41 H41         1.4807    1.0716   48.8828 H       1  ZINC001011267435    0.0800
     42 H42         2.3058   -0.6952   47.3509 H       1  ZINC001011267435    0.0600
     43 H43         0.8095    0.0417   46.7293 H       1  ZINC001011267435    0.0600
     44 H44         2.3815    0.4900   46.0249 H       1  ZINC001011267435    0.0600
     45 H45         3.5739    2.3964   48.9916 H       1  ZINC001011267435    0.0600
     46 H46         3.9202    0.6799   48.6719 H       1  ZINC001011267435    0.0600
     47 H47         3.9959    1.8650   47.3460 H       1  ZINC001011267435    0.0500
     48 H48        -2.6427    2.4247   47.6004 H       1  ZINC001011267435    0.1000
     49 H49        -2.5431    1.6570   49.2066 H       1  ZINC001011267435    0.0800
     50 H50        -3.8898    3.6465   49.4690 H       1  ZINC001011267435    0.1100
     51 H51        -2.7011    4.6361   48.5819 H       1  ZINC001011267435    0.0800
     52 H52        -4.6336    6.1174   51.1488 H       1  ZINC001011267435    0.1500
     53 H53        -7.0803    5.8437   51.2055 H       1  ZINC001011267435    0.1700
@<TRIPOS>BOND
     1     1     2    1
     2     1    26    1
     3     1    27    1
     4     1    28    1
     5     2     3    1
     6     2    29    1
     7     2    30    1
     8     3     4    1
     9     3    31    1
    10     3    32    1
    11     4    25   ar
    12     4     5   ar
    13     5     6   ar
    14     5    33    1
    15     6     7    1
    16     6    23   ar
    17     7     8    2
    18     7     9   am
    19     9    22    1
    20     9    10    1
    21    10    11    1
    22    10    34    1
    23    10    35    1
    24    11    12    1
    25    11    36    1
    26    11    37    1
    27    12    13   am
    28    12    21    1
    29    13    14    2
    30    13    15    1
    31    15    16    1
    32    15    17    1
    33    15    18    1
    34    17    38    1
    35    17    39    1
    36    17    40    1
    37    18    19    1
    38    18    20    1
    39    18    41    1
    40    19    42    1
    41    19    43    1
    42    19    44    1
    43    20    45    1
    44    20    46    1
    45    20    47    1
    46    21    22    1
    47    21    48    1
    48    21    49    1
    49    22    50    1
    50    22    51    1
    51    23    24   ar
    52    23    52    1
    53    24    25   ar
    54    24    53    1
@<TRIPOS>SUBSTRUCTURE
     1 ZINC001011267435        1 TEMP              0 ****  ****    0 ROOT


##########                                Name:    ZINC000022858610
##########                DOCK_Rotatable_Bonds:                   9
##########                         Heavy_Atoms:                  26
##########                    Molecular_Weight:             369.343
##########                DOCK_Rotatable_Bonds:                   9
##########                       Formal_Charge:          0.00999956
##########                     HBond_Acceptors:                   9
##########                        HBond_Donors:                   2
##########                         Heavy_Atoms:                  26
##########                          Grid_Score:          -27.206015
##########                     Grid_vdw_energy:          -23.624769
##########                      Grid_es_energy:           -3.581245
##########           Internal_energy_repulsive:           17.799995

@<TRIPOS>MOLECULE
ZINC000022858610
 44 45 1 0 0
SMALL
USER_CHARGES


@<TRIPOS>ATOM
      1 C1          0.9221    4.6644   56.2628 C.3     1  <0>         0.0100
      2 N2          0.9547    3.2358   55.9224 N.3     1  <0>        -0.5300
      3 C3          2.2280    2.6265   56.3293 C.3     1  <0>         0.0200
      4 C4         -0.1835    2.5259   56.5209 C.3     1  <0>         0.1500
      5 H5         -0.0914    1.4583   56.3216 H       1  <0>         0.1200
      6 C6         -1.4869    3.0475   55.9126 C.3     1  <0>         0.1300
      7 N7         -1.3897    3.0185   54.4511 N.am    1  <0>        -0.6800
      8 C8         -2.0546    3.9295   53.7133 C.2     1  <0>         0.5100
      9 O9         -2.7327    4.7748   54.2595 O.2     1  <0>        -0.5100
     10 C10        -1.9568    3.8987   52.2233 C.2     1  <0>         0.5200
     11 O11        -2.5137    4.7497   51.5608 O.2     1  <0>        -0.4900
     12 N12        -1.2502    2.9260   51.6142 N.am    1  <0>        -0.6500
     13 C13        -1.1588    2.8973   50.2201 C.ar    1  <0>         0.1900
     14 C14        -2.2754    2.5844   49.4556 C.ar    1  <0>        -0.1200
     15 C15        -2.1815    2.5569   48.0779 C.ar    1  <0>        -0.0700
     16 C16        -0.9776    2.8405   47.4597 C.ar    1  <0>        -0.1300
     17 C17         0.1364    3.1520   48.2179 C.ar    1  <0>        -0.0500
     18 C18         0.0481    3.1874   49.5954 C.ar    1  <0>        -0.2100
     19 C19         1.2623    3.5269   50.4208 C.3     1  <0>         0.5100
     20 F20         0.9698    4.6094   51.2572 F       1  <0>        -0.1700
     21 F21         1.6220    2.4208   51.1982 F       1  <0>        -0.1800
     22 F22         2.3225    3.8657   49.5732 F       1  <0>        -0.1700
     23 C23        -0.1950    2.7600   58.0096 C.2     1  <0>        -0.0500
     24 C24         0.4119    1.9912   58.9315 C.2     1  <0>        -0.1900
     25 C25         0.1438    2.5738   60.1915 C.2     1  <0>        -0.2100
     26 C26        -0.6110    3.6637   59.9642 C.2     1  <0>        -0.0400
     27 O27        -0.8083    3.7748   58.6403 O.3     1  <0>        -0.1700
     28 H28         1.6584    5.1981   55.6617 H       1  <0>         0.0700
     29 H29        -0.0714    5.0639   56.0594 H       1  <0>         0.0700
     30 H30         1.1554    4.7914   57.3200 H       1  <0>         0.0500
     31 H31         2.3533    2.7320   57.4069 H       1  <0>         0.0300
     32 H32         2.2254    1.5689   56.0655 H       1  <0>         0.0700
     33 H33         3.0501    3.1267   55.8173 H       1  <0>         0.0800
     34 H34        -2.3159    2.4170   56.2341 H       1  <0>         0.0900
     35 H35        -1.6589    4.0712   56.2450 H       1  <0>         0.0800
     36 H36        -0.8467    2.3436   54.0145 H       1  <0>         0.4200
     37 H37        -0.8051    2.2459   52.1435 H       1  <0>         0.4300
     38 H38        -3.2160    2.3625   49.9378 H       1  <0>         0.1500
     39 H39        -3.0492    2.3134   47.4828 H       1  <0>         0.1400
     40 H40        -0.9069    2.8183   46.3822 H       1  <0>         0.1400
     41 H41         1.0754    3.3722   47.7319 H       1  <0>         0.1500
     42 H42         0.9923    1.0997   58.7450 H       1  <0>         0.1500
     43 H43         0.4802    2.2128   61.1522 H       1  <0>         0.1500
     44 H44        -0.9906    4.3375   60.7181 H       1  <0>         0.2000
@<TRIPOS>BOND
     1     1     2    1
     2     1    28    1
     3     1    29    1
     4     1    30    1
     5     2     3    1
     6     2     4    1
     7     3    31    1
     8     3    32    1
     9     3    33    1
    10     4     5    1
    11     4     6    1
    12     4    23    1
    13     6     7    1
    14     6    34    1
    15     6    35    1
    16     7     8   am
    17     7    36    1
    18     8     9    2
    19     8    10    1
    20    10    11    2
    21    10    12   am
    22    12    13    1
    23    12    37    1
    24    13    18   ar
    25    13    14   ar
    26    14    15   ar
    27    14    38    1
    28    15    16   ar
    29    15    39    1
    30    16    17   ar
    31    16    40    1
    32    17    18   ar
    33    17    41    1
    34    18    19    1
    35    19    20    1
    36    19    21    1
    37    19    22    1
    38    23    27    1
    39    23    24    2
    40    24    25    1
    41    24    42    1
    42    25    26    2
    43    25    43    1
    44    26    27    1
    45    26    44    1
@<TRIPOS>SUBSTRUCTURE
     1 <0>         1 TEMP              0 ****  ****    0 ROOT


##########                                Name:    ZINC000906038034
##########                DOCK_Rotatable_Bonds:                   5
##########                         Heavy_Atoms:                  23
##########                    Molecular_Weight:             387.428
##########                DOCK_Rotatable_Bonds:                   5
##########                       Formal_Charge:         -0.00999987
##########                     HBond_Acceptors:                  12
##########                        HBond_Donors:                   0
##########                         Heavy_Atoms:                  23
##########                          Grid_Score:          -27.205326
##########                     Grid_vdw_energy:          -26.437086
##########                      Grid_es_energy:           -0.768239
##########           Internal_energy_repulsive:            3.512589

@<TRIPOS>MOLECULE
ZINC000906038034
 35 36 1 0 0
SMALL
USER_CHARGES


@<TRIPOS>ATOM
      1 C1          0.4586    4.0803   45.6489 C.3     1  ZINC000906038034    0.1000
      2 N2         -0.4726    3.5069   46.6237 N.pl3   1  ZINC000906038034   -0.3700
      3 C3         -0.8433    2.2101   46.6975 C.2     1  ZINC000906038034    0.0600
      4 C4         -1.7105    2.0812   47.7243 C.2     1  ZINC000906038034   -0.2500
      5 C5         -1.8811    3.3535   48.3081 C.2     1  ZINC000906038034    0.1200
      6 C6         -2.7465    3.6719   49.4644 C.2     1  ZINC000906038034    0.1500
      7 N7         -3.5134    2.8256   50.0901 N.2     1  ZINC000906038034   -0.4300
      8 C8         -4.2144    3.2888   51.1000 C.2     1  ZINC000906038034    0.0600
      9 C9         -5.1375    2.4096   51.9035 C.3     1  ZINC000906038034   -0.5300
     10 S10        -6.7163    2.2310   51.0283 S.o2    1  ZINC000906038034    2.4200
     11 O11        -6.4488    2.0449   49.6451 O.2     1  ZINC000906038034   -0.9100
     12 O12        -7.5097    1.2739   51.7164 O.2     1  ZINC000906038034   -0.9200
     13 C13        -7.4595    3.8698   51.2578 C.3     1  ZINC000906038034   -0.6100
     14 C14        -8.9297    3.8267   50.8366 C.3     1  ZINC000906038034   -0.4500
     15 S15        -9.0753    4.3221   49.0976 S.o     1  ZINC000906038034    1.3300
     16 O16        -8.6535    5.6712   48.9525 O.2     1  ZINC000906038034   -0.7600
     17 C17       -10.8595    4.2101   48.7895 C.3     1  ZINC000906038034    0.1200
     18 F18       -11.5374    5.0764   49.6539 F       1  ZINC000906038034   -0.1900
     19 F19       -11.1273    4.5697   47.4643 F       1  ZINC000906038034   -0.1700
     20 F20       -11.2898    2.8977   49.0126 F       1  ZINC000906038034   -0.1600
     21 C21        -4.0576    4.5882   51.3708 C.2     1  ZINC000906038034   -0.2300
     22 S22        -2.8999    5.2553   50.2214 S.3     1  ZINC000906038034    0.1600
     23 N23        -1.1280    4.2074   47.6443 N.2     1  ZINC000906038034   -0.2400
     24 H24         1.4737    4.0302   46.0430 H       1  ZINC000906038034    0.0800
     25 H25         0.4023    3.5168   44.7175 H       1  ZINC000906038034    0.0900
     26 H26         0.1928    5.1205   45.4608 H       1  ZINC000906038034    0.0900
     27 H27        -0.5056    1.4156   46.0485 H       1  ZINC000906038034    0.1800
     28 H28        -2.1889    1.1665   48.0418 H       1  ZINC000906038034    0.1600
     29 H29        -4.6818    1.4282   52.0347 H       1  ZINC000906038034    0.1500
     30 H30        -5.3123    2.8623   52.8795 H       1  ZINC000906038034    0.1600
     31 H31        -7.3904    4.1565   52.3071 H       1  ZINC000906038034    0.1500
     32 H32        -6.9276    4.5988   50.6464 H       1  ZINC000906038034    0.1500
     33 H33        -9.3132    2.8139   50.9592 H       1  ZINC000906038034    0.1600
     34 H34        -9.5061    4.5113   51.4589 H       1  ZINC000906038034    0.1300
     35 H35        -4.5519    5.1344   52.1607 H       1  ZINC000906038034    0.1900
@<TRIPOS>BOND
     1     1     2    1
     2     1    24    1
     3     1    25    1
     4     1    26    1
     5     2    23    1
     6     2     3    1
     7     3     4    2
     8     3    27    1
     9     4     5    1
    10     4    28    1
    11     5     6    1
    12     5    23    2
    13     6    22    1
    14     6     7    2
    15     7     8    1
    16     8     9    1
    17     8    21    2
    18     9    10    1
    19     9    29    1
    20     9    30    1
    21    10    11    2
    22    10    12    2
    23    10    13    1
    24    13    14    1
    25    13    31    1
    26    13    32    1
    27    14    15    1
    28    14    33    1
    29    14    34    1
    30    15    16    2
    31    15    17    1
    32    17    18    1
    33    17    19    1
    34    17    20    1
    35    21    22    1
    36    21    35    1
@<TRIPOS>SUBSTRUCTURE
     1 ZINC000906038034        1 TEMP              0 ****  ****    0 ROOT


##########                                Name:    ZINC000132775118
##########                DOCK_Rotatable_Bonds:                   5
##########                         Heavy_Atoms:                  27
##########                    Molecular_Weight:             376.499
##########                DOCK_Rotatable_Bonds:                   5
##########                       Formal_Charge:        -4.76837e-07
##########                     HBond_Acceptors:                   7
##########                        HBond_Donors:                   1
##########                         Heavy_Atoms:                  27
##########                          Grid_Score:          -27.196669
##########                     Grid_vdw_energy:          -24.809519
##########                      Grid_es_energy:           -2.387149
##########           Internal_energy_repulsive:           23.418179

@<TRIPOS>MOLECULE
ZINC000132775118
 59 62 1 0 0
SMALL
USER_CHARGES


@<TRIPOS>ATOM
      1 O1         -3.7705    6.3139   51.4608 O.2     1  ZINC000132775118   -0.5200
      2 C2         -2.8027    5.6373   51.7370 C.2     1  ZINC000132775118    0.5200
      3 C3         -1.6353    5.5684   50.7864 C.3     1  ZINC000132775118    0.0300
      4 N4         -1.6185    4.2565   50.1259 N.3     1  ZINC000132775118   -0.5100
      5 C5         -2.9846    3.7565   49.9126 C.3     1  ZINC000132775118    0.0300
      6 C6         -2.9702    2.5281   49.0492 C.2     1  ZINC000132775118    0.5300
      7 O7         -3.9657    1.8361   49.0139 O.2     1  ZINC000132775118   -0.5500
      8 N8         -1.9113    2.1595   48.3156 N.am    1  ZINC000132775118   -0.7200
      9 C9         -0.6546    2.8948   48.3523 C.3     1  ZINC000132775118    0.1500
     10 H10         0.0270    2.3964   49.0416 H       1  ZINC000132775118    0.0800
     11 C11        -0.0026    2.9631   46.9732 C.3     1  ZINC000132775118   -0.1300
     12 C12         1.3396    3.6916   47.0953 C.3     1  ZINC000132775118   -0.1200
     13 C13         1.1203    5.1023   47.6424 C.3     1  ZINC000132775118   -0.1200
     14 C14         0.4386    5.0327   49.0126 C.3     1  ZINC000132775118   -0.1200
     15 C15        -0.9046    4.3215   48.8456 C.3     1  ZINC000132775118    0.0700
     16 H16        -1.5162    4.8672   48.1272 H       1  ZINC000132775118    0.0600
     17 N17        -2.7687    4.9516   52.8968 N.am    1  ZINC000132775118   -0.6200
     18 C18        -1.5981    4.1373   53.2510 C.3     1  ZINC000132775118    0.1100
     19 C19        -1.1054    4.5595   54.6387 C.3     1  ZINC000132775118   -0.1200
     20 C20        -2.2618    4.4652   55.6366 C.3     1  ZINC000132775118   -0.1000
     21 C21        -1.7723    4.8473   57.0099 C.2     1  ZINC000132775118    0.5300
     22 O22        -1.8043    6.0067   57.3641 O.2     1  ZINC000132775118   -0.5300
     23 N23        -1.2991    3.9005   57.8441 N.am    1  ZINC000132775118   -0.6200
     24 C24        -0.7984    4.1319   59.2070 C.3     1  ZINC000132775118    0.1000
     25 C25        -0.3414    2.7676   59.7651 C.3     1  ZINC000132775118   -0.1300
     26 C26        -0.0847    1.9353   58.4811 C.3     1  ZINC000132775118   -0.1300
     27 C27        -1.2039    2.4603   57.5437 C.3     1  ZINC000132775118    0.1000
     28 C28        -3.3830    5.4164   55.2121 C.3     1  ZINC000132775118   -0.1200
     29 C29        -3.8990    5.0088   53.8337 C.3     1  ZINC000132775118    0.1200
     30 H30        -1.7317    6.3523   50.0353 H       1  ZINC000132775118    0.0700
     31 H31        -0.7070    5.7082   51.3405 H       1  ZINC000132775118    0.1200
     32 H32        -3.4326    3.5132   50.8760 H       1  ZINC000132775118    0.1300
     33 H33        -3.5785    4.5304   49.4263 H       1  ZINC000132775118    0.0700
     34 H34        -1.9836    1.3797   47.7432 H       1  ZINC000132775118    0.4000
     35 H35         0.1629    1.9534   46.5971 H       1  ZINC000132775118    0.0800
     36 H36        -0.6528    3.5076   46.2885 H       1  ZINC000132775118    0.0700
     37 H37         1.9914    3.1386   47.7718 H       1  ZINC000132775118    0.0700
     38 H38         1.8086    3.7532   46.1133 H       1  ZINC000132775118    0.0700
     39 H39         2.0822    5.6054   47.7420 H       1  ZINC000132775118    0.0700
     40 H40         0.4900    5.6638   46.9527 H       1  ZINC000132775118    0.0600
     41 H41         1.0714    4.4807   49.7075 H       1  ZINC000132775118    0.0800
     42 H42         0.2727    6.0419   49.3896 H       1  ZINC000132775118    0.0700
     43 H43        -1.8772    3.0838   53.2672 H       1  ZINC000132775118    0.0800
     44 H44        -0.8070    4.2966   52.5183 H       1  ZINC000132775118    0.0900
     45 H45        -0.2977    3.8992   54.9544 H       1  ZINC000132775118    0.0800
     46 H46        -0.7420    5.5864   54.5989 H       1  ZINC000132775118    0.0800
     47 H47        -2.6411    3.4436   55.6576 H       1  ZINC000132775118    0.0900
     48 H48         0.0444    4.8225   59.1799 H       1  ZINC000132775118    0.0700
     49 H49        -1.5944    4.5395   59.8301 H       1  ZINC000132775118    0.0700
     50 H50         0.5756    2.8756   60.3443 H       1  ZINC000132775118    0.0800
     51 H51        -1.1285    2.3142   60.3677 H       1  ZINC000132775118    0.0800
     52 H52         0.9032    2.1445   58.0708 H       1  ZINC000132775118    0.0800
     53 H53        -0.2079    0.8698   58.6750 H       1  ZINC000132775118    0.0900
     54 H54        -2.1469    1.9588   57.7610 H       1  ZINC000132775118    0.0700
     55 H55        -0.9256    2.3115   56.5004 H       1  ZINC000132775118    0.0800
     56 H56        -4.1965    5.3661   55.9360 H       1  ZINC000132775118    0.0800
     57 H57        -2.9982    6.4352   55.1670 H       1  ZINC000132775118    0.0800
     58 H58        -4.6276    5.7407   53.4851 H       1  ZINC000132775118    0.1000
     59 H59        -4.3659    4.0257   53.8944 H       1  ZINC000132775118    0.0700
@<TRIPOS>BOND
     1     1     2    2
     2     2     3    1
     3     2    17   am
     4     3     4    1
     5     3    30    1
     6     3    31    1
     7     4    15    1
     8     4     5    1
     9     5     6    1
    10     5    32    1
    11     5    33    1
    12     6     7    2
    13     6     8   am
    14     8     9    1
    15     8    34    1
    16     9    10    1
    17     9    15    1
    18     9    11    1
    19    11    12    1
    20    11    35    1
    21    11    36    1
    22    12    13    1
    23    12    37    1
    24    12    38    1
    25    13    14    1
    26    13    39    1
    27    13    40    1
    28    14    15    1
    29    14    41    1
    30    14    42    1
    31    15    16    1
    32    17    29    1
    33    17    18    1
    34    18    19    1
    35    18    43    1
    36    18    44    1
    37    19    20    1
    38    19    45    1
    39    19    46    1
    40    20    21    1
    41    20    28    1
    42    20    47    1
    43    21    22    2
    44    21    23   am
    45    23    27    1
    46    23    24    1
    47    24    25    1
    48    24    48    1
    49    24    49    1
    50    25    26    1
    51    25    50    1
    52    25    51    1
    53    26    27    1
    54    26    52    1
    55    26    53    1
    56    27    54    1
    57    27    55    1
    58    28    29    1
    59    28    56    1
    60    28    57    1
    61    29    58    1
    62    29    59    1
@<TRIPOS>SUBSTRUCTURE
     1 ZINC000132775118        1 TEMP              0 ****  ****    0 ROOT


##########                                Name:    ZINC000523863446
##########                DOCK_Rotatable_Bonds:                  10
##########                         Heavy_Atoms:                  29
##########                    Molecular_Weight:             396.533
##########                DOCK_Rotatable_Bonds:                  10
##########                       Formal_Charge:          -0.0200008
##########                     HBond_Acceptors:                   6
##########                        HBond_Donors:                   1
##########                         Heavy_Atoms:                  29
##########                          Grid_Score:          -27.189087
##########                     Grid_vdw_energy:          -26.813505
##########                      Grid_es_energy:           -0.375581
##########           Internal_energy_repulsive:           18.866852

@<TRIPOS>MOLECULE
ZINC000523863446
 61 63 1 0 0
SMALL
USER_CHARGES


@<TRIPOS>ATOM
      1 C1          4.2594    7.0730   40.9428 C.3     1  ZINC000523863446   -0.1700
      2 C2          3.9449    5.6197   41.3033 C.3     1  ZINC000523863446    0.1500
      3 H3          4.7187    5.2345   41.9674 H       1  ZINC000523863446    0.1300
      4 C4          2.6086    5.5520   41.9967 C.2     1  ZINC000523863446    0.5100
      5 O5          1.7465    6.3631   41.7323 O.2     1  ZINC000523863446   -0.5100
      6 N6          2.3716    4.5904   42.9107 N.am    1  ZINC000523863446   -0.6000
      7 C7          3.4136    3.6118   43.2315 C.3     1  ZINC000523863446    0.0700
      8 C8          1.0718    4.5236   43.5835 C.3     1  ZINC000523863446    0.1000
      9 C9          1.2678    4.0881   45.0128 C.2     1  ZINC000523863446    0.5000
     10 O10         1.6063    4.8958   45.8518 O.2     1  ZINC000523863446   -0.5200
     11 N11         1.0672    2.8010   45.3585 N.am    1  ZINC000523863446   -0.7200
     12 C12         1.2561    2.3780   46.7484 C.3     1  ZINC000523863446    0.1900
     13 H13         1.9991    3.0174   47.2250 H       1  ZINC000523863446    0.1000
     14 C14         1.7379    0.9261   46.7785 C.3     1  ZINC000523863446   -0.1200
     15 C15         2.2110    0.5750   48.1905 C.3     1  ZINC000523863446   -0.0900
     16 C16         2.1128   -0.9375   48.3997 C.3     1  ZINC000523863446   -0.1200
     17 C17         2.5860   -1.2888   49.8118 C.3     1  ZINC000523863446   -0.1200
     18 C18         4.0387   -0.8427   49.9886 C.3     1  ZINC000523863446   -0.1200
     19 C19         4.1369    0.6698   49.7793 C.3     1  ZINC000523863446   -0.1200
     20 C20         3.6639    1.0210   48.3673 C.3     1  ZINC000523863446   -0.1100
     21 C21        -0.0516    2.4888   47.4893 C.ar    1  ZINC000523863446   -0.0900
     22 C22        -0.1179    3.2020   48.6716 C.ar    1  ZINC000523863446   -0.1100
     23 C23        -1.3174    3.3036   49.3511 C.ar    1  ZINC000523863446   -0.1200
     24 C24        -2.4506    2.6922   48.8481 C.ar    1  ZINC000523863446   -0.1200
     25 C25        -2.3845    1.9798   47.6654 C.ar    1  ZINC000523863446   -0.1200
     26 C26        -1.1860    1.8818   46.9836 C.ar    1  ZINC000523863446   -0.1000
     27 N27         3.9029    4.8116   40.0821 N.pl3   1  ZINC000523863446   -0.3600
     28 C28         2.8143    4.5845   39.3174 C.2     1  ZINC000523863446    0.0600
     29 C29         3.1924    3.7937   38.2864 C.2     1  ZINC000523863446   -0.2700
     30 C30         4.5585    3.5284   38.4258 C.2     1  ZINC000523863446    0.0500
     31 N31         4.9868    4.1431   39.4986 N.2     1  ZINC000523863446   -0.2900
     32 H32         3.4856    7.4582   40.2786 H       1  ZINC000523863446    0.0700
     33 H33         4.2907    7.6741   41.8514 H       1  ZINC000523863446    0.1000
     34 H34         5.2259    7.1219   40.4413 H       1  ZINC000523863446    0.0800
     35 H35         4.0242    3.9872   44.0527 H       1  ZINC000523863446    0.0700
     36 H36         2.9496    2.6700   43.5246 H       1  ZINC000523863446    0.0800
     37 H37         4.0421    3.4501   42.3558 H       1  ZINC000523863446    0.0800
     38 H38         0.6020    5.5070   43.5645 H       1  ZINC000523863446    0.1100
     39 H39         0.4329    3.8057   43.0692 H       1  ZINC000523863446    0.1100
     40 H40         0.7977    2.1548   44.6872 H       1  ZINC000523863446    0.4000
     41 H41         0.9187    0.2654   46.4950 H       1  ZINC000523863446    0.0800
     42 H42         2.5635    0.8027   46.0776 H       1  ZINC000523863446    0.0700
     43 H43         1.5830    1.0844   48.9214 H       1  ZINC000523863446    0.0700
     44 H44         1.0779   -1.2553   48.2738 H       1  ZINC000523863446    0.0600
     45 H45         2.7409   -1.4469   47.6689 H       1  ZINC000523863446    0.0600
     46 H46         1.9579   -0.7793   50.5426 H       1  ZINC000523863446    0.0600
     47 H47         2.5160   -2.3663   49.9609 H       1  ZINC000523863446    0.0600
     48 H48         4.3758   -1.0929   50.9945 H       1  ZINC000523863446    0.0600
     49 H49         4.6668   -1.3521   49.2577 H       1  ZINC000523863446    0.0600
     50 H50         3.5089    1.1792   50.5102 H       1  ZINC000523863446    0.0600
     51 H51         5.1719    0.9875   49.9053 H       1  ZINC000523863446    0.0600
     52 H52         4.2918    0.5116   47.6365 H       1  ZINC000523863446    0.0600
     53 H53         3.7338    2.0985   48.2183 H       1  ZINC000523863446    0.0600
     54 H54         0.7674    3.6796   49.0644 H       1  ZINC000523863446    0.1200
     55 H55        -1.3691    3.8602   50.2752 H       1  ZINC000523863446    0.1200
     56 H56        -3.3876    2.7710   49.3795 H       1  ZINC000523863446    0.1200
     57 H57        -3.2698    1.5019   47.2727 H       1  ZINC000523863446    0.1200
     58 H58        -1.1343    1.3251   46.0596 H       1  ZINC000523863446    0.1200
     59 H59         1.8198    4.9653   39.4964 H       1  ZINC000523863446    0.1700
     60 H60         2.5521    3.4310   37.4960 H       1  ZINC000523863446    0.1500
     61 H61         5.1576    2.9248   37.7601 H       1  ZINC000523863446    0.1800
@<TRIPOS>BOND
     1     1     2    1
     2     1    32    1
     3     1    33    1
     4     1    34    1
     5     2     3    1
     6     2     4    1
     7     2    27    1
     8     4     5    2
     9     4     6   am
    10     6     7    1
    11     6     8    1
    12     7    35    1
    13     7    36    1
    14     7    37    1
    15     8     9    1
    16     8    38    1
    17     8    39    1
    18     9    10    2
    19     9    11   am
    20    11    12    1
    21    11    40    1
    22    12    13    1
    23    12    14    1
    24    12    21    1
    25    14    15    1
    26    14    41    1
    27    14    42    1
    28    15    20    1
    29    15    16    1
    30    15    43    1
    31    16    17    1
    32    16    44    1
    33    16    45    1
    34    17    18    1
    35    17    46    1
    36    17    47    1
    37    18    19    1
    38    18    48    1
    39    18    49    1
    40    19    20    1
    41    19    50    1
    42    19    51    1
    43    20    52    1
    44    20    53    1
    45    21    26   ar
    46    21    22   ar
    47    22    23   ar
    48    22    54    1
    49    23    24   ar
    50    23    55    1
    51    24    25   ar
    52    24    56    1
    53    25    26   ar
    54    25    57    1
    55    26    58    1
    56    27    31    1
    57    27    28    1
    58    28    29    2
    59    28    59    1
    60    29    30    1
    61    29    60    1
    62    30    31    2
    63    30    61    1
@<TRIPOS>SUBSTRUCTURE
     1 ZINC000523863446        1 TEMP              0 ****  ****    0 ROOT


##########                                Name:    ZINC000971513996
##########                DOCK_Rotatable_Bonds:                   6
##########                         Heavy_Atoms:                  27
##########                    Molecular_Weight:             369.464
##########                DOCK_Rotatable_Bonds:                   6
##########                       Formal_Charge:          -0.0300002
##########                     HBond_Acceptors:                   6
##########                        HBond_Donors:                   1
##########                         Heavy_Atoms:                  27
##########                          Grid_Score:          -27.164940
##########                     Grid_vdw_energy:          -27.591938
##########                      Grid_es_energy:            0.426999
##########           Internal_energy_repulsive:           21.452402

@<TRIPOS>MOLECULE
ZINC000971513996
 54 57 1 0 0
SMALL
USER_CHARGES


@<TRIPOS>ATOM
      1 C1          5.2874    0.0453   47.3229 C.3     1  ZINC000971513996   -0.1600
      2 C2          4.4343   -0.5700   48.4341 C.3     1  ZINC000971513996   -0.1400
      3 C3          2.9800   -0.1254   48.2659 C.3     1  ZINC000971513996    0.0800
      4 H4          2.5938   -0.4977   47.3170 H       1  ZINC000971513996    0.0800
      5 O5          2.1946   -0.6497   49.3385 O.3     1  ZINC000971513996   -0.3600
      6 C6          2.1718   -2.0773   49.3983 C.3     1  ZINC000971513996    0.0200
      7 C7          2.9099    1.3798   48.2811 C.2     1  ZINC000971513996    0.5400
      8 O8          3.2132    1.9910   49.2837 O.2     1  ZINC000971513996   -0.5100
      9 N9          2.5100    2.0469   47.1803 N.am    1  ZINC000971513996   -0.6400
     10 C10         2.0738    1.6971   45.8177 C.3     1  ZINC000971513996    0.1000
     11 C11         1.2333    2.9885   45.8248 C.3     1  ZINC000971513996   -0.1200
     12 H12         1.2096    3.5287   44.8784 H       1  ZINC000971513996    0.1100
     13 C13        -0.1495    2.7513   46.4367 C.3     1  ZINC000971513996   -0.1200
     14 C14        -0.5523    3.9767   47.2622 C.3     1  ZINC000971513996    0.1100
     15 N15         0.4640    4.1876   48.2965 N.am    1  ZINC000971513996   -0.6000
     16 C16         0.1002    4.2241   49.5937 C.2     1  ZINC000971513996    0.5900
     17 O17         0.9399    4.3990   50.4562 O.2     1  ZINC000971513996   -0.5200
     18 C18        -1.3120    4.0526   49.9665 C.2     1  ZINC000971513996    0.0200
     19 C19        -2.0236    2.9013   49.8480 C.2     1  ZINC000971513996   -0.1000
     20 C20        -3.3362    3.1558   50.3141 C.ar    1  ZINC000971513996   -0.1100
     21 C21        -4.4860    2.3646   50.4305 C.ar    1  ZINC000971513996   -0.0600
     22 C22        -5.6349    2.9059   50.9300 C.ar    1  ZINC000971513996   -0.1200
     23 C23        -6.8703    2.0518   51.0539 C.3     1  ZINC000971513996   -0.1100
     24 C24        -5.6760    4.2366   51.3260 C.ar    1  ZINC000971513996   -0.0800
     25 C25        -4.5588    5.0350   51.2214 C.ar    1  ZINC000971513996   -0.1300
     26 C26        -3.3753    4.5060   50.7146 C.ar    1  ZINC000971513996    0.1100
     27 N27        -2.1247    5.0349   50.4986 N.pl3   1  ZINC000971513996   -0.5800
     28 C28         1.8648    4.3578   47.9337 C.3     1  ZINC000971513996    0.0700
     29 C29         2.3068    3.4469   46.8007 C.3     1  ZINC000971513996    0.1300
     30 H30         3.1789    3.8507   46.2865 H       1  ZINC000971513996    0.1100
     31 H31         6.3377   -0.1852   47.5013 H       1  ZINC000971513996    0.0600
     32 H32         4.9833   -0.3668   46.3608 H       1  ZINC000971513996    0.0600
     33 H33         5.1491    1.1266   47.3151 H       1  ZINC000971513996    0.0600
     34 H34         4.4911   -1.6570   48.3759 H       1  ZINC000971513996    0.0800
     35 H35         4.8059   -0.2381   49.4035 H       1  ZINC000971513996    0.0800
     36 H36         1.6671   -2.4699   48.5155 H       1  ZINC000971513996    0.0400
     37 H37         3.1933   -2.4560   49.4314 H       1  ZINC000971513996    0.0500
     38 H38         1.6373   -2.3949   50.2936 H       1  ZINC000971513996    0.0900
     39 H39         2.8816    1.7077   45.0860 H       1  ZINC000971513996    0.0900
     40 H40         1.4742    0.7879   45.7727 H       1  ZINC000971513996    0.0800
     41 H41        -0.8775    2.5930   45.6410 H       1  ZINC000971513996    0.0900
     42 H42        -0.1166    1.8729   47.0813 H       1  ZINC000971513996    0.0700
     43 H43        -0.6069    4.8532   46.6164 H       1  ZINC000971513996    0.0800
     44 H44        -1.5217    3.8028   47.7293 H       1  ZINC000971513996    0.1000
     45 H45        -1.6543    1.9607   49.4668 H       1  ZINC000971513996    0.1500
     46 H46        -4.4637    1.3289   50.1253 H       1  ZINC000971513996    0.1200
     47 H47        -6.8841    1.5727   52.0329 H       1  ZINC000971513996    0.0700
     48 H48        -7.7566    2.6765   50.9425 H       1  ZINC000971513996    0.0600
     49 H49        -6.8637    1.2884   50.2759 H       1  ZINC000971513996    0.0600
     50 H50        -6.5932    4.6495   51.7193 H       1  ZINC000971513996    0.1300
     51 H51        -4.6008    6.0687   51.5315 H       1  ZINC000971513996    0.1200
     52 H52        -1.8574    5.9479   50.6878 H       1  ZINC000971513996    0.4200
     53 H53         2.0236    5.3899   47.6211 H       1  ZINC000971513996    0.0800
     54 H54         2.4812    4.1603   48.8109 H       1  ZINC000971513996    0.1200
@<TRIPOS>BOND
     1     1     2    1
     2     1    31    1
     3     1    32    1
     4     1    33    1
     5     2     3    1
     6     2    34    1
     7     2    35    1
     8     3     4    1
     9     3     5    1
    10     3     7    1
    11     5     6    1
    12     6    36    1
    13     6    37    1
    14     6    38    1
    15     7     8    2
    16     7     9   am
    17     9    29    1
    18     9    10    1
    19    10    11    1
    20    10    39    1
    21    10    40    1
    22    11    12    1
    23    11    29    1
    24    11    13    1
    25    13    14    1
    26    13    41    1
    27    13    42    1
    28    14    15    1
    29    14    43    1
    30    14    44    1
    31    15    16   am
    32    15    28    1
    33    16    17    2
    34    16    18    1
    35    18    27    1
    36    18    19    2
    37    19    20    1
    38    19    45    1
    39    20    26   ar
    40    20    21   ar
    41    21    22   ar
    42    21    46    1
    43    22    23    1
    44    22    24   ar
    45    23    47    1
    46    23    48    1
    47    23    49    1
    48    24    25   ar
    49    24    50    1
    50    25    26   ar
    51    25    51    1
    52    26    27    1
    53    27    52    1
    54    28    29    1
    55    28    53    1
    56    28    54    1
    57    29    30    1
@<TRIPOS>SUBSTRUCTURE
     1 ZINC000971513996        1 TEMP              0 ****  ****    0 ROOT


##########                                Name:    ZINC000632456679
##########                DOCK_Rotatable_Bonds:                   6
##########                         Heavy_Atoms:                  24
##########                    Molecular_Weight:              374.82
##########                DOCK_Rotatable_Bonds:                   6
##########                       Formal_Charge:          -0.0299999
##########                     HBond_Acceptors:                   9
##########                        HBond_Donors:                   1
##########                         Heavy_Atoms:                  24
##########                          Grid_Score:          -27.145905
##########                     Grid_vdw_energy:          -27.252758
##########                      Grid_es_energy:            0.106854
##########           Internal_energy_repulsive:           34.878864

@<TRIPOS>MOLECULE
ZINC000632456679
 40 41 1 0 0
SMALL
USER_CHARGES


@<TRIPOS>ATOM
      1 C1          4.2431    2.6370   47.9398 C.3     1  ZINC000632456679   -0.1600
      2 C2          3.2570    1.6865   47.2578 C.3     1  ZINC000632456679    0.1900
      3 C3          3.3909    1.8162   45.7393 C.3     1  ZINC000632456679   -0.2000
      4 C4          3.5642    0.2471   47.6758 C.3     1  ZINC000632456679   -0.6300
      5 S5          3.0969    0.0090   49.4123 S.o2    1  ZINC000632456679    2.4100
      6 C6          3.5141   -1.7366   49.6767 C.3     1  ZINC000632456679   -0.6600
      7 O7          3.9487    0.8059   50.2238 O.2     1  ZINC000632456679   -0.9300
      8 O8          1.6886    0.1602   49.5271 O.2     1  ZINC000632456679   -0.9300
      9 N9          1.8906    2.0304   47.6587 N.am    1  ZINC000632456679   -0.7200
     10 C10         0.8489    1.3237   47.1772 C.2     1  ZINC000632456679    0.6200
     11 O11         1.0431    0.4018   46.4087 O.2     1  ZINC000632456679   -0.5000
     12 C12        -0.5270    1.6690   47.5823 C.2     1  ZINC000632456679   -0.0900
     13 C13        -0.9075    2.3065   48.7291 C.2     1  ZINC000632456679   -0.1300
     14 C14        -2.3231    2.3859   48.6192 C.2     1  ZINC000632456679    0.0400
     15 C15        -3.2592    2.9907   49.5993 C.ar    1  ZINC000632456679   -0.0500
     16 C16        -4.3588    2.2666   50.0545 C.ar    1  ZINC000632456679   -0.0600
     17 C17        -5.2268    2.8331   50.9660 C.ar    1  ZINC000632456679   -0.1100
     18 C18        -5.0082    4.1181   51.4287 C.ar    1  ZINC000632456679   -0.0700
     19 C19        -3.9184    4.8443   50.9816 C.ar    1  ZINC000632456679   -0.0800
     20 Cl20       -3.6515    6.4566   51.5673 Cl      1  ZINC000632456679   -0.0400
     21 C21        -3.0381    4.2845   50.0726 C.ar    1  ZINC000632456679    0.1400
     22 F22        -1.9737    4.9928   49.6360 F       1  ZINC000632456679   -0.1100
     23 N23        -2.6359    1.8199   47.4806 N.2     1  ZINC000632456679   -0.3200
     24 O24        -1.6571    1.4237   46.8924 O.3     1  ZINC000632456679    0.1400
     25 H25         4.0243    3.6625   47.6421 H       1  ZINC000632456679    0.0900
     26 H26         4.1477    2.5445   49.0217 H       1  ZINC000632456679    0.0600
     27 H27         5.2598    2.3811   47.6416 H       1  ZINC000632456679    0.0700
     28 H28         4.4075    1.5603   45.4410 H       1  ZINC000632456679    0.0800
     29 H29         2.6884    1.1390   45.2534 H       1  ZINC000632456679    0.0800
     30 H30         3.1721    2.8417   45.4415 H       1  ZINC000632456679    0.0900
     31 H31         2.9978   -0.4419   47.0493 H       1  ZINC000632456679    0.1600
     32 H32         4.6303    0.0538   47.5567 H       1  ZINC000632456679    0.1400
     33 H33         4.5784   -1.8871   49.4957 H       1  ZINC000632456679    0.1300
     34 H34         3.2772   -2.0153   50.7035 H       1  ZINC000632456679    0.1300
     35 H35         2.9375   -2.3560   48.9898 H       1  ZINC000632456679    0.1300
     36 H36         1.7355    2.7667   48.2709 H       1  ZINC000632456679    0.4200
     37 H37        -0.2800    2.6655   49.5315 H       1  ZINC000632456679    0.1900
     38 H38        -4.5321    1.2633   49.6944 H       1  ZINC000632456679    0.1500
     39 H39        -6.0791    2.2714   51.3188 H       1  ZINC000632456679    0.1500
     40 H40        -5.6911    4.5566   52.1413 H       1  ZINC000632456679    0.1500
@<TRIPOS>BOND
     1     1     2    1
     2     1    25    1
     3     1    26    1
     4     1    27    1
     5     2     3    1
     6     2     4    1
     7     2     9    1
     8     3    28    1
     9     3    29    1
    10     3    30    1
    11     4     5    1
    12     4    31    1
    13     4    32    1
    14     5     6    1
    15     5     7    2
    16     5     8    2
    17     6    33    1
    18     6    34    1
    19     6    35    1
    20     9    10   am
    21     9    36    1
    22    10    11    2
    23    10    12    1
    24    12    24    1
    25    12    13    2
    26    13    14    1
    27    13    37    1
    28    14    15    1
    29    14    23    2
    30    15    21   ar
    31    15    16   ar
    32    16    17   ar
    33    16    38    1
    34    17    18   ar
    35    17    39    1
    36    18    19   ar
    37    18    40    1
    38    19    20    1
    39    19    21   ar
    40    21    22    1
    41    23    24    1
@<TRIPOS>SUBSTRUCTURE
     1 ZINC000632456679        1 TEMP              0 ****  ****    0 ROOT


##########                                Name:    ZINC000650955167
##########                DOCK_Rotatable_Bonds:                   9
##########                         Heavy_Atoms:                  26
##########                    Molecular_Weight:             361.484
##########                DOCK_Rotatable_Bonds:                   9
##########                       Formal_Charge:        -7.07805e-07
##########                     HBond_Acceptors:                   6
##########                        HBond_Donors:                   2
##########                         Heavy_Atoms:                  26
##########                          Grid_Score:          -27.128893
##########                     Grid_vdw_energy:          -27.282064
##########                      Grid_es_energy:            0.153171
##########           Internal_energy_repulsive:           16.393888

@<TRIPOS>MOLECULE
ZINC000650955167
 57 59 1 0 0
SMALL
USER_CHARGES


@<TRIPOS>ATOM
      1 C1          0.2269    5.8457   50.0409 C.3     1  ZINC000650955167    0.0200
      2 O2         -1.0857    5.7331   49.4872 O.3     1  ZINC000650955167   -0.3200
      3 C3         -1.3905    4.5699   48.8539 C.ar    1  ZINC000650955167    0.1300
      4 C4         -0.5643    4.0890   47.8489 C.ar    1  ZINC000650955167   -0.2000
      5 C5         -0.8762    2.9059   47.2069 C.ar    1  ZINC000650955167   -0.0800
      6 C6         -2.0106    2.2019   47.5653 C.ar    1  ZINC000650955167   -0.1500
      7 C7         -2.8362    2.6795   48.5666 C.ar    1  ZINC000650955167   -0.0800
      8 C8         -2.5255    3.8585   49.2157 C.ar    1  ZINC000650955167   -0.1100
      9 C9         -3.4253    4.3782   50.3072 C.3     1  ZINC000650955167   -0.0800
     10 C10        -3.1845    3.5798   51.5899 C.3     1  ZINC000650955167    0.1800
     11 H11        -2.5790    2.7022   51.3634 H       1  ZINC000650955167    0.0900
     12 N12        -4.4702    3.1550   52.1492 N.am    1  ZINC000650955167   -0.7300
     13 C13        -4.9954    1.9633   51.8019 C.2     1  ZINC000650955167    0.7400
     14 O14        -4.4028    1.2415   51.0234 O.2     1  ZINC000650955167   -0.5800
     15 N15        -6.1774    1.5719   52.3177 N.am    1  ZINC000650955167   -0.6700
     16 C16        -7.0462    0.3913   52.1979 C.3     1  ZINC000650955167    0.1100
     17 C17        -8.2363    1.3001   52.5351 C.3     1  ZINC000650955167    0.0300
     18 N18        -9.2236    0.6903   53.4359 N.3     1  ZINC000650955167   -0.5100
     19 C19       -10.0881   -0.2625   52.7073 C.3     1  ZINC000650955167    0.0400
     20 C20       -11.4702   -0.1505   53.3980 C.3     1  ZINC000650955167   -0.1600
     21 C21       -11.5407    1.3667   53.7137 C.3     1  ZINC000650955167    0.0800
     22 H22       -11.8770    1.9267   52.8411 H       1  ZINC000650955167    0.0600
     23 O23       -12.3985    1.6112   54.8302 O.3     1  ZINC000650955167   -0.5600
     24 C24       -10.0780    1.7187   54.0574 C.3     1  ZINC000650955167    0.0500
     25 C25        -7.1629    2.1345   53.2532 C.3     1  ZINC000650955167    0.1400
     26 C26        -2.4510    4.4570   52.6065 C.3     1  ZINC000650955167   -0.1100
     27 C27        -3.4719    5.1668   53.4981 C.3     1  ZINC000650955167   -0.1400
     28 C28        -1.5396    3.5830   53.4705 C.3     1  ZINC000650955167   -0.1500
     29 H29         0.3383    6.8203   50.5163 H       1  ZINC000650955167    0.1000
     30 H30         0.3772    5.0607   50.7820 H       1  ZINC000650955167    0.0600
     31 H31         0.9663    5.7421   49.2468 H       1  ZINC000650955167    0.0600
     32 H32         0.3217    4.6390   47.5681 H       1  ZINC000650955167    0.1300
     33 H33        -0.2332    2.5310   46.4243 H       1  ZINC000650955167    0.1200
     34 H34        -2.2528    1.2774   47.0621 H       1  ZINC000650955167    0.1200
     35 H35        -3.7220    2.1278   48.8445 H       1  ZINC000650955167    0.1300
     36 H36        -3.2066    5.4307   50.4879 H       1  ZINC000650955167    0.0900
     37 H37        -4.4661    4.2705   50.0021 H       1  ZINC000650955167    0.0800
     38 H38        -4.9435    3.7314   52.7694 H       1  ZINC000650955167    0.4000
     39 H39        -7.0851   -0.0183   51.1885 H       1  ZINC000650955167    0.0700
     40 H40        -6.8524   -0.3688   52.9547 H       1  ZINC000650955167    0.0900
     41 H41        -8.6857    1.7876   51.6699 H       1  ZINC000650955167    0.0900
     42 H42       -10.1645    0.0208   51.6575 H       1  ZINC000650955167    0.0500
     43 H43        -9.6983   -1.2761   52.8004 H       1  ZINC000650955167    0.0900
     44 H44       -12.2707   -0.4459   52.7197 H       1  ZINC000650955167    0.0800
     45 H45       -11.4981   -0.7415   54.3134 H       1  ZINC000650955167    0.0900
     46 H46       -12.1168    1.1743   55.6456 H       1  ZINC000650955167    0.3800
     47 H47        -9.9392    1.7123   55.1385 H       1  ZINC000650955167    0.0900
     48 H48        -9.8285    2.7007   53.6552 H       1  ZINC000650955167    0.0700
     49 H49        -7.0025    1.8364   54.2892 H       1  ZINC000650955167    0.0900
     50 H50        -7.3013    3.2098   53.1401 H       1  ZINC000650955167    0.0800
     51 H51        -1.8505    5.1987   52.0800 H       1  ZINC000650955167    0.0700
     52 H52        -4.0723    4.4249   54.0247 H       1  ZINC000650955167    0.0600
     53 H53        -2.9493    5.7916   54.2225 H       1  ZINC000650955167    0.0400
     54 H54        -4.1211    5.7893   52.8826 H       1  ZINC000650955167    0.0500
     55 H55        -0.8124    3.0773   52.8353 H       1  ZINC000650955167    0.0600
     56 H56        -1.0171    4.2079   54.1948 H       1  ZINC000650955167    0.0600
     57 H57        -2.1402    2.8411   53.9970 H       1  ZINC000650955167    0.0600
@<TRIPOS>BOND
     1     1     2    1
     2     1    29    1
     3     1    30    1
     4     1    31    1
     5     2     3    1
     6     3     8   ar
     7     3     4   ar
     8     4     5   ar
     9     4    32    1
    10     5     6   ar
    11     5    33    1
    12     6     7   ar
    13     6    34    1
    14     7     8   ar
    15     7    35    1
    16     8     9    1
    17     9    10    1
    18     9    36    1
    19     9    37    1
    20    10    11    1
    21    10    12    1
    22    10    26    1
    23    12    13   am
    24    12    38    1
    25    13    14    2
    26    13    15   am
    27    15    25    1
    28    15    16    1
    29    16    17    1
    30    16    39    1
    31    16    40    1
    32    17    18    1
    33    17    25    1
    34    17    41    1
    35    18    24    1
    36    18    19    1
    37    19    20    1
    38    19    42    1
    39    19    43    1
    40    20    21    1
    41    20    44    1
    42    20    45    1
    43    21    22    1
    44    21    23    1
    45    21    24    1
    46    23    46    1
    47    24    47    1
    48    24    48    1
    49    25    49    1
    50    25    50    1
    51    26    27    1
    52    26    28    1
    53    26    51    1
    54    27    52    1
    55    27    53    1
    56    27    54    1
    57    28    55    1
    58    28    56    1
    59    28    57    1
@<TRIPOS>SUBSTRUCTURE
     1 ZINC000650955167        1 TEMP              0 ****  ****    0 ROOT


##########                                Name:    ZINC000478980774
##########                DOCK_Rotatable_Bonds:                   4
##########                         Heavy_Atoms:                  26
##########                    Molecular_Weight:             401.818
##########                DOCK_Rotatable_Bonds:                   4
##########                       Formal_Charge:          -0.0100001
##########                     HBond_Acceptors:                   9
##########                        HBond_Donors:                   1
##########                         Heavy_Atoms:                  26
##########                          Grid_Score:          -27.118265
##########                     Grid_vdw_energy:          -26.457575
##########                      Grid_es_energy:           -0.660691
##########           Internal_energy_repulsive:            7.080317

@<TRIPOS>MOLECULE
ZINC000478980774
 40 42 1 0 0
SMALL
USER_CHARGES


@<TRIPOS>ATOM
      1 C1         -7.5013    3.3877   54.3967 C.3     1  ZINC000478980774   -0.1400
      2 C2         -8.0757    3.2992   52.9815 C.3     1  ZINC000478980774   -0.4600
      3 H3         -8.8680    4.0384   52.8640 H       1  ZINC000478980774    0.1500
      4 C4         -6.9840    3.5693   51.9784 C.2     1  ZINC000478980774    0.5400
      5 O5         -7.2636    3.9946   50.8774 O.2     1  ZINC000478980774   -0.5000
      6 N6         -5.6969    3.3381   52.3046 N.am    1  ZINC000478980774   -0.6600
      7 C7         -4.6820    3.5892   51.3721 C.ar    1  ZINC000478980774    0.1600
      8 C8         -4.0293    4.8142   51.3694 C.ar    1  ZINC000478980774   -0.1200
      9 C9         -3.0281    5.0635   50.4496 C.ar    1  ZINC000478980774   -0.0600
     10 C10        -2.6732    4.0923   49.5281 C.ar    1  ZINC000478980774    0.0100
     11 O11        -1.7370    4.0885   48.5335 O.3     1  ZINC000478980774   -0.2900
     12 C12        -1.5433    2.7028   48.1935 C.3     1  ZINC000478980774    0.5700
     13 F13        -1.2838    2.5640   46.8257 F       1  ZINC000478980774   -0.1100
     14 F14        -0.5019    2.1524   48.9483 F       1  ZINC000478980774   -0.1500
     15 O15        -2.7995    2.0878   48.5349 O.3     1  ZINC000478980774   -0.2800
     16 C16        -3.3264    2.8615   49.5285 C.ar    1  ZINC000478980774    0.0500
     17 C17        -4.3250    2.6106   50.4539 C.ar    1  ZINC000478980774   -0.0900
     18 S18        -8.7523    1.6386   52.7063 S.o     1  ZINC000478980774    1.3000
     19 O19        -7.7128    0.6775   52.8278 O.2     1  ZINC000478980774   -0.7800
     20 C20        -9.9213    1.4418   54.0794 C.3     1  ZINC000478980774   -0.4300
     21 C21       -10.5775    0.0880   53.9901 C.ar    1  ZINC000478980774   -0.0600
     22 C22       -10.8805   -0.4531   52.7552 C.ar    1  ZINC000478980774   -0.1100
     23 C23       -11.4826   -1.6950   52.6730 C.ar    1  ZINC000478980774   -0.1100
     24 C24       -11.7823   -2.3959   53.8261 C.ar    1  ZINC000478980774   -0.1100
     25 C25       -11.4797   -1.8556   55.0620 C.ar    1  ZINC000478980774   -0.1100
     26 C26       -10.8717   -0.6159   55.1445 C.ar    1  ZINC000478980774   -0.0300
     27 Cl27      -10.4914    0.0632   56.6963 Cl      1  ZINC000478980774   -0.0600
     28 H28        -8.2909    3.1924   55.1222 H       1  ZINC000478980774    0.0800
     29 H29        -6.7090    2.6485   54.5142 H       1  ZINC000478980774    0.0700
     30 H30        -7.0947    4.3854   54.5621 H       1  ZINC000478980774    0.0700
     31 H31        -5.4732    2.9978   53.1849 H       1  ZINC000478980774    0.4200
     32 H32        -4.3043    5.5734   52.0866 H       1  ZINC000478980774    0.1500
     33 H33        -2.5219    6.0175   50.4494 H       1  ZINC000478980774    0.1500
     34 H34        -4.8291    1.6555   50.4591 H       1  ZINC000478980774    0.1600
     35 H35        -9.3873    1.5249   55.0260 H       1  ZINC000478980774    0.1100
     36 H36       -10.6830    2.2192   54.0223 H       1  ZINC000478980774    0.1300
     37 H37       -10.6472    0.0945   51.8540 H       1  ZINC000478980774    0.1400
     38 H38       -11.7192   -2.1174   51.7076 H       1  ZINC000478980774    0.1300
     39 H39       -12.2532   -3.3656   53.7613 H       1  ZINC000478980774    0.1300
     40 H40       -11.7139   -2.4034   55.9628 H       1  ZINC000478980774    0.1300
@<TRIPOS>BOND
     1     1     2    1
     2     1    28    1
     3     1    29    1
     4     1    30    1
     5     2     3    1
     6     2     4    1
     7     2    18    1
     8     4     5    2
     9     4     6   am
    10     6     7    1
    11     6    31    1
    12     7    17   ar
    13     7     8   ar
    14     8     9   ar
    15     8    32    1
    16     9    10   ar
    17     9    33    1
    18    10    16   ar
    19    10    11    1
    20    11    12    1
    21    12    13    1
    22    12    14    1
    23    12    15    1
    24    15    16    1
    25    16    17   ar
    26    17    34    1
    27    18    19    2
    28    18    20    1
    29    20    21    1
    30    20    35    1
    31    20    36    1
    32    21    26   ar
    33    21    22   ar
    34    22    23   ar
    35    22    37    1
    36    23    24   ar
    37    23    38    1
    38    24    25   ar
    39    24    39    1
    40    25    26   ar
    41    25    40    1
    42    26    27    1
@<TRIPOS>SUBSTRUCTURE
     1 ZINC000478980774        1 TEMP              0 ****  ****    0 ROOT


##########                                Name:    ZINC001067316277
##########                DOCK_Rotatable_Bonds:                   5
##########                         Heavy_Atoms:                  24
##########                    Molecular_Weight:             345.469
##########                DOCK_Rotatable_Bonds:                   5
##########                       Formal_Charge:          -0.0200007
##########                     HBond_Acceptors:                   7
##########                        HBond_Donors:                   2
##########                         Heavy_Atoms:                  24
##########                          Grid_Score:          -27.116680
##########                     Grid_vdw_energy:          -26.977272
##########                      Grid_es_energy:           -0.139409
##########           Internal_energy_repulsive:           13.071717

@<TRIPOS>MOLECULE
ZINC001067316277
 47 49 1 0 0
SMALL
USER_CHARGES


@<TRIPOS>ATOM
      1 C1        -14.7049   -5.4675   55.8513 C.3     1  ZINC001067316277   -0.1400
      2 S2        -14.8296   -3.9166   56.7760 S.3     1  ZINC001067316277   -0.0400
      3 C3        -13.2047   -3.8318   57.4520 C.ar    1  ZINC001067316277    0.1800
      4 C4        -12.3034   -4.8827   57.2647 C.ar    1  ZINC001067316277   -0.2400
      5 C5        -11.0406   -4.7729   57.8127 C.ar    1  ZINC001067316277    0.1900
      6 N6        -10.7224   -3.6824   58.4950 N.ar    1  ZINC001067316277   -0.5600
      7 C7        -11.5973   -2.7005   58.6572 C.ar    1  ZINC001067316277    0.5100
      8 N8        -11.2261   -1.5779   59.3765 N.3     1  ZINC001067316277   -0.4600
      9 C9        -11.4721   -1.7675   60.8118 C.3     1  ZINC001067316277    0.0700
     10 C10       -11.1883   -0.4609   61.5563 C.3     1  ZINC001067316277   -0.1300
     11 C11        -9.7327   -0.0497   61.3189 C.3     1  ZINC001067316277    0.1600
     12 H12        -9.0680   -0.8127   61.7238 H       1  ZINC001067316277    0.0900
     13 N13        -9.4709    1.2299   61.9826 N.am    1  ZINC001067316277   -0.7200
     14 C14        -9.0334    1.2508   63.2572 C.2     1  ZINC001067316277    0.5900
     15 O15        -8.8571    0.2069   63.8572 O.2     1  ZINC001067316277   -0.5300
     16 C16        -8.7697    2.5319   63.9211 C.2     1  ZINC001067316277   -0.0600
     17 C17        -8.3171    2.7026   65.2122 C.2     1  ZINC001067316277   -0.1000
     18 C18        -8.2053    4.0794   65.4296 C.2     1  ZINC001067316277   -0.2100
     19 C19        -8.5833    4.7116   64.2928 C.2     1  ZINC001067316277    0.0300
     20 N20        -8.9234    3.7824   63.3667 N.pl3   1  ZINC001067316277   -0.5400
     21 C21        -9.4901    0.0940   59.8139 C.3     1  ZINC001067316277   -0.0700
     22 C22       -10.3844    1.2029   59.2558 C.3     1  ZINC001067316277   -0.1400
     23 C23        -8.0224    0.4473   59.5645 C.3     1  ZINC001067316277   -0.1400
     24 C24        -9.8230   -1.2287   59.1199 C.3     1  ZINC001067316277    0.0800
     25 N25       -12.8162   -2.7641   58.1434 N.ar    1  ZINC001067316277   -0.5400
     26 H26       -13.9174   -5.3817   55.1025 H       1  ZINC001067316277    0.0900
     27 H27       -14.4673   -6.2811   56.5367 H       1  ZINC001067316277    0.0900
     28 H28       -15.6547   -5.6738   55.3578 H       1  ZINC001067316277    0.1000
     29 H29       -12.5878   -5.7612   56.7046 H       1  ZINC001067316277    0.1500
     30 H30       -10.3200   -5.5674   57.6867 H       1  ZINC001067316277    0.1700
     31 H31       -12.5118   -2.0556   60.9671 H       1  ZINC001067316277    0.1000
     32 H32       -10.8174   -2.5517   61.1920 H       1  ZINC001067316277    0.0500
     33 H33       -11.8523    0.3203   61.1861 H       1  ZINC001067316277    0.0800
     34 H34       -11.3560   -0.6064   62.6234 H       1  ZINC001067316277    0.0800
     35 H35        -9.6126    2.0621   61.5047 H       1  ZINC001067316277    0.3900
     36 H36        -8.0915    1.9205   65.9219 H       1  ZINC001067316277    0.1500
     37 H37        -7.8763    4.5545   66.3420 H       1  ZINC001067316277    0.1500
     38 H38        -8.6062    5.7816   64.1470 H       1  ZINC001067316277    0.1700
     39 H39        -9.2296    3.9678   62.4651 H       1  ZINC001067316277    0.4100
     40 H40       -10.1493    2.1440   59.7529 H       1  ZINC001067316277    0.0500
     41 H41       -10.2112    1.3047   58.1846 H       1  ZINC001067316277    0.0600
     42 H42       -11.4298    0.9500   59.4326 H       1  ZINC001067316277    0.0700
     43 H43        -7.3859   -0.3437   59.9610 H       1  ZINC001067316277    0.0600
     44 H44        -7.8504    0.5495   58.4930 H       1  ZINC001067316277    0.0600
     45 H45        -7.7856    1.3879   60.0618 H       1  ZINC001067316277    0.0600
     46 H46        -9.1761   -2.0154   59.5081 H       1  ZINC001067316277    0.0600
     47 H47        -9.6649   -1.1254   58.0464 H       1  ZINC001067316277    0.1000
@<TRIPOS>BOND
     1     1     2    1
     2     1    26    1
     3     1    27    1
     4     1    28    1
     5     2     3    1
     6     3    25   ar
     7     3     4   ar
     8     4     5   ar
     9     4    29    1
    10     5     6   ar
    11     5    30    1
    12     6     7   ar
    13     7     8    1
    14     7    25   ar
    15     8    24    1
    16     8     9    1
    17     9    10    1
    18     9    31    1
    19     9    32    1
    20    10    11    1
    21    10    33    1
    22    10    34    1
    23    11    12    1
    24    11    13    1
    25    11    21    1
    26    13    14   am
    27    13    35    1
    28    14    15    2
    29    14    16    1
    30    16    20    1
    31    16    17    2
    32    17    18    1
    33    17    36    1
    34    18    19    2
    35    18    37    1
    36    19    20    1
    37    19    38    1
    38    20    39    1
    39    21    22    1
    40    21    23    1
    41    21    24    1
    42    22    40    1
    43    22    41    1
    44    22    42    1
    45    23    43    1
    46    23    44    1
    47    23    45    1
    48    24    46    1
    49    24    47    1
@<TRIPOS>SUBSTRUCTURE
     1 ZINC001067316277        1 TEMP              0 ****  ****    0 ROOT


##########                                Name:    ZINC000326056918
##########                DOCK_Rotatable_Bonds:                   6
##########                         Heavy_Atoms:                  24
##########                    Molecular_Weight:             408.326
##########                DOCK_Rotatable_Bonds:                   6
##########                       Formal_Charge:         -0.00999978
##########                     HBond_Acceptors:                   9
##########                        HBond_Donors:                   0
##########                         Heavy_Atoms:                  24
##########                          Grid_Score:          -27.104811
##########                     Grid_vdw_energy:          -25.772604
##########                      Grid_es_energy:           -1.332207
##########           Internal_energy_repulsive:           32.046875

@<TRIPOS>MOLECULE
ZINC000326056918
 39 40 1 0 0
SMALL
USER_CHARGES


@<TRIPOS>ATOM
      1 C1         -1.4077    3.5985   55.2291 C.3     1  ZINC000326056918    0.0400
      2 O2         -1.5909    4.8885   54.5882 O.3     1  ZINC000326056918   -0.3500
      3 C3         -2.7482    5.5361   54.8352 C.2     1  ZINC000326056918    0.5000
      4 O4         -2.8439    6.7242   54.5932 O.2     1  ZINC000326056918   -0.4300
      5 C5         -3.8889    4.8089   55.3947 C.2     1  ZINC000326056918   -0.1600
      6 C6         -5.0364    4.4935   54.7211 C.2     1  ZINC000326056918   -0.6200
      7 S7         -5.3209    4.9256   53.0367 S.o2    1  ZINC000326056918    2.6900
      8 O8         -6.2536    3.9798   52.5319 O.2     1  ZINC000326056918   -0.9100
      9 O9         -5.5475    6.3282   53.0150 O.2     1  ZINC000326056918   -0.9400
     10 N10        -3.9044    4.6679   52.2186 N.am    1  ZINC000326056918   -0.9900
     11 C11        -3.2428    5.7796   51.5313 C.3     1  ZINC000326056918    0.0900
     12 C12        -3.3129    3.3281   52.1821 C.3     1  ZINC000326056918    0.1500
     13 C13        -2.6706    3.0990   50.8382 C.ar    1  ZINC000326056918   -0.0900
     14 C14        -1.3234    3.3531   50.6642 C.ar    1  ZINC000326056918   -0.0800
     15 C15        -0.7334    3.1437   49.4316 C.ar    1  ZINC000326056918   -0.1100
     16 C16        -1.4914    2.6792   48.3717 C.ar    1  ZINC000326056918   -0.0200
     17 Cl17       -0.7503    2.4158   46.8241 Cl      1  ZINC000326056918   -0.0600
     18 C18        -2.8401    2.4242   48.5455 C.ar    1  ZINC000326056918   -0.1100
     19 C19        -3.4285    2.6289   49.7802 C.ar    1  ZINC000326056918   -0.0300
     20 Cl20       -5.1207    2.3087   49.9994 Cl      1  ZINC000326056918   -0.0100
     21 C21        -5.9453    3.8054   55.4885 C.2     1  ZINC000326056918   -0.0400
     22 C22        -7.2795    3.3550   54.9520 C.3     1  ZINC000326056918   -0.1100
     23 C23        -5.5586    3.5641   56.7471 C.2     1  ZINC000326056918   -0.2600
     24 S24        -4.0002    4.1943   57.0384 S.3     1  ZINC000326056918    0.3100
     25 H25        -0.4384    3.1872   54.9472 H       1  ZINC000326056918    0.1100
     26 H26        -1.4493    3.7212   56.3113 H       1  ZINC000326056918    0.0700
     27 H27        -2.1976    2.9187   54.9098 H       1  ZINC000326056918    0.0700
     28 H28        -2.6153    6.3221   52.2385 H       1  ZINC000326056918    0.0600
     29 H29        -2.6252    5.3905   50.7218 H       1  ZINC000326056918    0.0700
     30 H30        -3.9956    6.4536   51.1222 H       1  ZINC000326056918    0.0900
     31 H31        -2.5589    3.2424   52.9645 H       1  ZINC000326056918    0.1100
     32 H32        -4.0914    2.5827   52.3445 H       1  ZINC000326056918    0.0900
     33 H33        -0.7312    3.7158   51.4914 H       1  ZINC000326056918    0.1400
     34 H34         0.3193    3.3432   49.2960 H       1  ZINC000326056918    0.1400
     35 H35        -3.4322    2.0615   47.7182 H       1  ZINC000326056918    0.1500
     36 H36        -7.1575    2.4115   54.4198 H       1  ZINC000326056918    0.0900
     37 H37        -7.9762    3.2180   55.7792 H       1  ZINC000326056918    0.0700
     38 H38        -7.6701    4.1095   54.2691 H       1  ZINC000326056918    0.0900
     39 H39        -6.1525    3.0372   57.4793 H       1  ZINC000326056918    0.1800
@<TRIPOS>BOND
     1     1     2    1
     2     1    25    1
     3     1    26    1
     4     1    27    1
     5     2     3    1
     6     3     4    2
     7     3     5    1
     8     5    24    1
     9     5     6    2
    10     6     7    1
    11     6    21    1
    12     7     8    2
    13     7     9    2
    14     7    10   am
    15    10    11    1
    16    10    12    1
    17    11    28    1
    18    11    29    1
    19    11    30    1
    20    12    13    1
    21    12    31    1
    22    12    32    1
    23    13    19   ar
    24    13    14   ar
    25    14    15   ar
    26    14    33    1
    27    15    16   ar
    28    15    34    1
    29    16    17    1
    30    16    18   ar
    31    18    19   ar
    32    18    35    1
    33    19    20    1
    34    21    22    1
    35    21    23    2
    36    22    36    1
    37    22    37    1
    38    22    38    1
    39    23    24    1
    40    23    39    1
@<TRIPOS>SUBSTRUCTURE
     1 ZINC000326056918        1 TEMP              0 ****  ****    0 ROOT


##########                                Name:    ZINC001009984555
##########                DOCK_Rotatable_Bonds:                   7
##########                         Heavy_Atoms:                  23
##########                    Molecular_Weight:             338.446
##########                DOCK_Rotatable_Bonds:                   7
##########                       Formal_Charge:           0.0400002
##########                     HBond_Acceptors:                   6
##########                        HBond_Donors:                   1
##########                         Heavy_Atoms:                  23
##########                          Grid_Score:          -27.069811
##########                     Grid_vdw_energy:          -26.673571
##########                      Grid_es_energy:           -0.396240
##########           Internal_energy_repulsive:           16.144554

@<TRIPOS>MOLECULE
ZINC001009984555
 46 47 1 0 0
SMALL
USER_CHARGES


@<TRIPOS>ATOM
      1 C1        -12.0076   -1.0340   53.9659 C.3     1  ZINC001009984555   -0.1400
      2 S2        -10.2729   -1.2942   53.5036 S.3     1  ZINC001009984555   -0.1800
      3 C3         -9.7965    0.3041   52.7902 C.3     1  ZINC001009984555   -0.1300
      4 C4         -8.3567    0.2481   52.3488 C.2     1  ZINC001009984555    0.5500
      5 O5         -7.8789   -0.8003   51.9702 O.2     1  ZINC001009984555   -0.5100
      6 N6         -7.6000    1.3631   52.3747 N.am    1  ZINC001009984555   -0.6100
      7 C7         -6.1866    1.4519   51.9651 C.3     1  ZINC001009984555    0.1000
      8 C8         -5.9762    2.9393   51.5866 C.3     1  ZINC001009984555   -0.1100
      9 H9         -6.3363    3.1405   50.5777 H       1  ZINC001009984555    0.1000
     10 C10        -4.5065    3.3393   51.7313 C.3     1  ZINC001009984555    0.1300
     11 N11        -3.7152    2.6752   50.6923 N.am    1  ZINC001009984555   -0.7300
     12 C12        -2.6957    3.3288   50.1007 C.2     1  ZINC001009984555    0.5600
     13 O13        -2.4320    4.4688   50.4301 O.2     1  ZINC001009984555   -0.5200
     14 C14        -1.8982    2.6593   49.0511 C.ar    1  ZINC001009984555   -0.1200
     15 C15        -2.5224    2.1678   47.9037 C.ar    1  ZINC001009984555   -0.0900
     16 C16        -1.7736    1.5437   46.9271 C.ar    1  ZINC001009984555   -0.1000
     17 C17        -0.4065    1.4037   47.0825 C.ar    1  ZINC001009984555   -0.1200
     18 C18         0.2206    1.8891   48.2191 C.ar    1  ZINC001009984555    0.0900
     19 F19         1.5564    1.7489   48.3645 F       1  ZINC001009984555   -0.1300
     20 C20        -0.5176    2.5214   49.2012 C.ar    1  ZINC001009984555   -0.0500
     21 C21         0.1645    3.0493   50.4369 C.3     1  ZINC001009984555   -0.1200
     22 C22        -6.8555    3.6573   52.6445 C.3     1  ZINC001009984555   -0.1200
     23 C23        -8.0492    2.6935   52.8101 C.3     1  ZINC001009984555    0.1400
     24 H24        -8.3507    2.6533   53.8569 H       1  ZINC001009984555    0.0800
     25 C25        -9.2224    3.1655   51.9489 C.3     1  ZINC001009984555   -0.1700
     26 H26       -12.5865   -0.7826   53.0773 H       1  ZINC001009984555    0.0800
     27 H27       -12.4051   -1.9452   54.4128 H       1  ZINC001009984555    0.1100
     28 H28       -12.0733   -0.2178   54.6853 H       1  ZINC001009984555    0.0800
     29 H29       -10.4315    0.5225   51.9316 H       1  ZINC001009984555    0.1100
     30 H30        -9.9166    1.0867   53.5393 H       1  ZINC001009984555    0.1100
     31 H31        -5.5336    1.1751   52.7928 H       1  ZINC001009984555    0.0800
     32 H32        -6.0004    0.8112   51.1032 H       1  ZINC001009984555    0.0800
     33 H33        -4.4119    4.4200   51.6248 H       1  ZINC001009984555    0.0800
     34 H34        -4.1428    3.0377   52.7135 H       1  ZINC001009984555    0.0800
     35 H35        -3.9249    1.7651   50.4304 H       1  ZINC001009984555    0.4000
     36 H36        -3.5900    2.2753   47.7806 H       1  ZINC001009984555    0.1300
     37 H37        -2.2565    1.1632   46.0391 H       1  ZINC001009984555    0.1400
     38 H38         0.1746    0.9137   46.3153 H       1  ZINC001009984555    0.1400
     39 H39         0.3694    4.1126   50.3126 H       1  ZINC001009984555    0.0800
     40 H40        -0.4841    2.9028   51.3006 H       1  ZINC001009984555    0.1000
     41 H41         1.1015    2.5143   50.5913 H       1  ZINC001009984555    0.0600
     42 H42        -6.3136    3.7708   53.5834 H       1  ZINC001009984555    0.0900
     43 H43        -7.1926    4.6250   52.2730 H       1  ZINC001009984555    0.0900
     44 H44        -8.9193    3.1861   50.9019 H       1  ZINC001009984555    0.0600
     45 H45       -10.0613    2.4805   52.0709 H       1  ZINC001009984555    0.0700
     46 H46        -9.5221    4.1662   52.2600 H       1  ZINC001009984555    0.0700
@<TRIPOS>BOND
     1     1     2    1
     2     1    26    1
     3     1    27    1
     4     1    28    1
     5     2     3    1
     6     3     4    1
     7     3    29    1
     8     3    30    1
     9     4     5    2
    10     4     6   am
    11     6    23    1
    12     6     7    1
    13     7     8    1
    14     7    31    1
    15     7    32    1
    16     8     9    1
    17     8    10    1
    18     8    22    1
    19    10    11    1
    20    10    33    1
    21    10    34    1
    22    11    12   am
    23    11    35    1
    24    12    13    2
    25    12    14    1
    26    14    20   ar
    27    14    15   ar
    28    15    16   ar
    29    15    36    1
    30    16    17   ar
    31    16    37    1
    32    17    18   ar
    33    17    38    1
    34    18    19    1
    35    18    20   ar
    36    20    21    1
    37    21    39    1
    38    21    40    1
    39    21    41    1
    40    22    23    1
    41    22    42    1
    42    22    43    1
    43    23    24    1
    44    23    25    1
    45    25    44    1
    46    25    45    1
    47    25    46    1
@<TRIPOS>SUBSTRUCTURE
     1 ZINC001009984555        1 TEMP              0 ****  ****    0 ROOT


##########                                Name:    ZINC000673213454
##########                DOCK_Rotatable_Bonds:                   7
##########                         Heavy_Atoms:                  26
##########                    Molecular_Weight:             360.453
##########                DOCK_Rotatable_Bonds:                   7
##########                       Formal_Charge:          -0.0100001
##########                     HBond_Acceptors:                   6
##########                        HBond_Donors:                   1
##########                         Heavy_Atoms:                  26
##########                          Grid_Score:          -27.033720
##########                     Grid_vdw_energy:          -26.632141
##########                      Grid_es_energy:           -0.401579
##########           Internal_energy_repulsive:           20.113594

@<TRIPOS>MOLECULE
ZINC000673213454
 54 56 1 0 0
SMALL
USER_CHARGES


@<TRIPOS>ATOM
      1 C1          0.7715    2.1363   46.2780 C.3     1  ZINC000673213454   -0.1700
      2 C2          1.0354    2.7680   47.6463 C.3     1  ZINC000673213454    0.1400
      3 H3          1.0736    3.8525   47.5445 H       1  ZINC000673213454    0.0900
      4 C4          2.3706    2.2597   48.1938 C.3     1  ZINC000673213454   -0.1200
      5 C5          2.2478    0.7743   48.5393 C.3     1  ZINC000673213454   -0.1300
      6 H6          1.2061    0.5108   48.7217 H       1  ZINC000673213454    0.0800
      7 C7          3.1176    0.4314   49.7733 C.3     1  ZINC000673213454   -0.1500
      8 C8          3.7187   -0.9407   49.3755 C.3     1  ZINC000673213454    0.0500
      9 O9          3.9578   -0.8056   47.9581 O.3     1  ZINC000673213454   -0.3800
     10 C10         2.8334   -0.0928   47.4079 C.3     1  ZINC000673213454    0.0500
     11 N11        -0.0420    2.4018   48.5690 N.am    1  ZINC000673213454   -0.6900
     12 C12        -1.2045    3.0836   48.5521 C.2     1  ZINC000673213454    0.5100
     13 O13        -1.3594    3.9997   47.7715 O.2     1  ZINC000673213454   -0.5100
     14 C14        -2.3029    2.7113   49.4947 C.2     1  ZINC000673213454    0.5000
     15 O15        -3.1266    1.8817   49.1692 O.2     1  ZINC000673213454   -0.5200
     16 N16        -2.3786    3.2967   50.7063 N.am    1  ZINC000673213454   -0.5800
     17 C17        -1.3629    4.3014   51.0737 C.3     1  ZINC000673213454    0.1100
     18 C18        -2.0045    5.4947   51.7968 C.3     1  ZINC000673213454   -0.1700
     19 C19        -3.3243    5.8387   51.1365 C.3     1  ZINC000673213454    0.0800
     20 O20        -4.3631    5.1213   51.7900 O.3     1  ZINC000673213454   -0.3800
     21 C21        -4.6733    3.8436   51.3701 C.3     1  ZINC000673213454    0.1500
     22 H22        -4.9221    3.8603   50.3090 H       1  ZINC000673213454    0.0600
     23 C23        -5.8527    3.3296   52.1547 C.ar    1  ZINC000673213454   -0.0800
     24 C24        -6.7779    2.5006   51.5483 C.ar    1  ZINC000673213454   -0.0900
     25 C25        -7.8598    2.0291   52.2681 C.ar    1  ZINC000673213454   -0.1300
     26 C26        -8.0164    2.3863   53.5942 C.ar    1  ZINC000673213454   -0.1200
     27 C27        -7.0908    3.2145   54.2009 C.ar    1  ZINC000673213454   -0.1300
     28 C28        -6.0065    3.6826   53.4823 C.ar    1  ZINC000673213454   -0.0900
     29 C29        -3.4596    2.9192   51.5979 C.3     1  ZINC000673213454    0.0700
     30 H30         0.7333    1.0517   46.3798 H       1  ZINC000673213454    0.0600
     31 H31        -0.1797    2.4983   45.8879 H       1  ZINC000673213454    0.0600
     32 H32         1.5731    2.4086   45.5914 H       1  ZINC000673213454    0.0700
     33 H33         3.1470    2.3947   47.4408 H       1  ZINC000673213454    0.0800
     34 H34         2.6329    2.8209   49.0907 H       1  ZINC000673213454    0.0900
     35 H35         3.9028    1.1741   49.9142 H       1  ZINC000673213454    0.0800
     36 H36         2.5034    0.3420   50.6693 H       1  ZINC000673213454    0.0800
     37 H37         4.6535   -1.1188   49.9072 H       1  ZINC000673213454    0.0900
     38 H38         3.0066   -1.7427   49.5700 H       1  ZINC000673213454    0.0600
     39 H39         2.0838   -0.8000   47.0531 H       1  ZINC000673213454    0.0600
     40 H40         3.1636    0.5433   46.5868 H       1  ZINC000673213454    0.0900
     41 H41         0.0813    1.6689   49.1922 H       1  ZINC000673213454    0.4100
     42 H42        -0.6245    3.8403   51.7296 H       1  ZINC000673213454    0.0800
     43 H43        -0.8663    4.6552   50.1702 H       1  ZINC000673213454    0.0900
     44 H44        -2.1777    5.2358   52.8413 H       1  ZINC000673213454    0.0800
     45 H45        -1.3364    6.3541   51.7421 H       1  ZINC000673213454    0.0900
     46 H46        -3.5086    6.9094   51.2240 H       1  ZINC000673213454    0.1000
     47 H47        -3.2912    5.5561   50.0842 H       1  ZINC000673213454    0.0500
     48 H48        -6.6556    2.2215   50.5122 H       1  ZINC000673213454    0.1300
     49 H49        -8.5831    1.3819   51.7941 H       1  ZINC000673213454    0.1200
     50 H50        -8.8620    2.0185   54.1564 H       1  ZINC000673213454    0.1200
     51 H51        -7.2132    3.4939   55.2369 H       1  ZINC000673213454    0.1200
     52 H52        -5.2833    4.3296   53.9563 H       1  ZINC000673213454    0.1300
     53 H53        -3.7472    1.8867   51.3992 H       1  ZINC000673213454    0.1200
     54 H54        -3.1228    3.0099   52.6306 H       1  ZINC000673213454    0.0800
@<TRIPOS>BOND
     1     1     2    1
     2     1    30    1
     3     1    31    1
     4     1    32    1
     5     2     3    1
     6     2     4    1
     7     2    11    1
     8     4     5    1
     9     4    33    1
    10     4    34    1
    11     5     6    1
    12     5    10    1
    13     5     7    1
    14     7     8    1
    15     7    35    1
    16     7    36    1
    17     8     9    1
    18     8    37    1
    19     8    38    1
    20     9    10    1
    21    10    39    1
    22    10    40    1
    23    11    12   am
    24    11    41    1
    25    12    13    2
    26    12    14    1
    27    14    15    2
    28    14    16   am
    29    16    29    1
    30    16    17    1
    31    17    18    1
    32    17    42    1
    33    17    43    1
    34    18    19    1
    35    18    44    1
    36    18    45    1
    37    19    20    1
    38    19    46    1
    39    19    47    1
    40    20    21    1
    41    21    22    1
    42    21    23    1
    43    21    29    1
    44    23    28   ar
    45    23    24   ar
    46    24    25   ar
    47    24    48    1
    48    25    26   ar
    49    25    49    1
    50    26    27   ar
    51    26    50    1
    52    27    28   ar
    53    27    51    1
    54    28    52    1
    55    29    53    1
    56    29    54    1
@<TRIPOS>SUBSTRUCTURE
     1 ZINC000673213454        1 TEMP              0 ****  ****    0 ROOT


##########                                Name:    ZINC000375477402
##########                DOCK_Rotatable_Bonds:                   5
##########                         Heavy_Atoms:                  26
##########                    Molecular_Weight:             378.342
##########                DOCK_Rotatable_Bonds:                   5
##########                       Formal_Charge:         -1.2666e-07
##########                     HBond_Acceptors:                   9
##########                        HBond_Donors:                   1
##########                         Heavy_Atoms:                  26
##########                          Grid_Score:          -27.029524
##########                     Grid_vdw_energy:          -26.561140
##########                      Grid_es_energy:           -0.468383
##########           Internal_energy_repulsive:            8.118870

@<TRIPOS>MOLECULE
ZINC000375477402
 45 47 1 0 0
SMALL
USER_CHARGES


@<TRIPOS>ATOM
      1 O1         -0.9046    2.6581   47.3890 O.2     1  ZINC000375477402   -0.5600
      2 C2         -0.1470    2.3785   48.2980 C.2     1  ZINC000375477402    0.7200
      3 N3         -0.3419    2.9041   49.5236 N.am    1  ZINC000375477402   -0.7300
      4 C4         -1.4633    3.8171   49.7592 C.3     1  ZINC000375477402    0.1800
      5 H5         -2.3025    3.5333   49.1241 H       1  ZINC000375477402    0.1500
      6 C6         -1.8792    3.7392   51.2056 C.ar    1  ZINC000375477402   -0.1300
      7 C7         -0.9246    3.5717   52.1910 C.ar    1  ZINC000375477402   -0.0800
      8 C8         -1.3044    3.5001   53.5184 C.ar    1  ZINC000375477402   -0.0900
      9 C9         -2.6396    3.5957   53.8628 C.ar    1  ZINC000375477402   -0.1100
     10 C10        -3.5979    3.7634   52.8783 C.ar    1  ZINC000375477402    0.0800
     11 F11        -4.9032    3.8571   53.2141 F       1  ZINC000375477402   -0.1200
     12 C12        -3.2164    3.8411   51.5476 C.ar    1  ZINC000375477402    0.1000
     13 F13        -4.1500    4.0047   50.5849 F       1  ZINC000375477402   -0.1100
     14 C14        -1.0342    5.2478   49.4282 C.3     1  ZINC000375477402    0.4400
     15 F15        -2.0223    6.1416   49.8548 F       1  ZINC000375477402   -0.1600
     16 F16         0.1690    5.5366   50.0809 F       1  ZINC000375477402   -0.1700
     17 F17        -0.8569    5.3736   48.0461 F       1  ZINC000375477402   -0.1800
     18 N18         0.8846    1.5386   48.0813 N.am    1  ZINC000375477402   -0.6300
     19 C19         1.2128    0.8936   46.7962 C.3     1  ZINC000375477402    0.1000
     20 C20         2.7269    0.5728   46.8863 C.3     1  ZINC000375477402   -0.1200
     21 C21         2.8735    0.1916   48.3763 C.3     1  ZINC000375477402   -0.1100
     22 C22         1.8745    1.1179   49.0861 C.3     1  ZINC000375477402    0.1400
     23 C23         2.5023   -1.2714   48.5840 C.3     1  ZINC000375477402   -0.1100
     24 C24         2.7181   -1.6408   50.0563 C.3     1  ZINC000375477402   -0.1600
     25 C25         4.1646   -1.3233   50.4446 C.3     1  ZINC000375477402    0.0600
     26 O26         4.4256    0.0637   50.2196 O.3     1  ZINC000375477402   -0.3800
     27 C27         4.2929    0.4671   48.8537 C.3     1  ZINC000375477402    0.0800
     28 H28         0.2601    2.6779   50.2497 H       1  ZINC000375477402    0.4000
     29 H29         0.1191    3.4965   51.9238 H       1  ZINC000375477402    0.1400
     30 H30        -0.5572    3.3689   54.2871 H       1  ZINC000375477402    0.1500
     31 H31        -2.9351    3.5393   54.9000 H       1  ZINC000375477402    0.1500
     32 H32         0.6374   -0.0242   46.6748 H       1  ZINC000375477402    0.0700
     33 H33         1.0185    1.5761   45.9688 H       1  ZINC000375477402    0.0700
     34 H34         2.9878   -0.2658   46.2408 H       1  ZINC000375477402    0.0900
     35 H35         3.3273    1.4502   46.6465 H       1  ZINC000375477402    0.0800
     36 H36         2.3954    1.9866   49.4889 H       1  ZINC000375477402    0.0800
     37 H37         1.3731    0.5775   49.8890 H       1  ZINC000375477402    0.0700
     38 H38         1.4557   -1.4228   48.3201 H       1  ZINC000375477402    0.0700
     39 H39         3.1323   -1.9000   47.9547 H       1  ZINC000375477402    0.0700
     40 H40         2.0376   -1.0620   50.6809 H       1  ZINC000375477402    0.0700
     41 H41         2.5281   -2.7048   50.1968 H       1  ZINC000375477402    0.0800
     42 H42         4.3171   -1.5553   51.4986 H       1  ZINC000375477402    0.1000
     43 H43         4.8434   -1.9235   49.8388 H       1  ZINC000375477402    0.0500
     44 H44         4.9976   -0.0934   48.2395 H       1  ZINC000375477402    0.0600
     45 H45         4.5044    1.5329   48.7676 H       1  ZINC000375477402    0.1000
@<TRIPOS>BOND
     1     1     2    2
     2     2     3   am
     3     2    18   am
     4     3     4    1
     5     3    28    1
     6     4     5    1
     7     4     6    1
     8     4    14    1
     9     6    12   ar
    10     6     7   ar
    11     7     8   ar
    12     7    29    1
    13     8     9   ar
    14     8    30    1
    15     9    10   ar
    16     9    31    1
    17    10    11    1
    18    10    12   ar
    19    12    13    1
    20    14    15    1
    21    14    16    1
    22    14    17    1
    23    18    22    1
    24    18    19    1
    25    19    20    1
    26    19    32    1
    27    19    33    1
    28    20    21    1
    29    20    34    1
    30    20    35    1
    31    21    27    1
    32    21    22    1
    33    21    23    1
    34    22    36    1
    35    22    37    1
    36    23    24    1
    37    23    38    1
    38    23    39    1
    39    24    25    1
    40    24    40    1
    41    24    41    1
    42    25    26    1
    43    25    42    1
    44    25    43    1
    45    26    27    1
    46    27    44    1
    47    27    45    1
@<TRIPOS>SUBSTRUCTURE
     1 ZINC000375477402        1 TEMP              0 ****  ****    0 ROOT


##########                                Name:    ZINC000899027326
##########                DOCK_Rotatable_Bonds:                   5
##########                         Heavy_Atoms:                  22
##########                    Molecular_Weight:             346.169
##########                DOCK_Rotatable_Bonds:                   5
##########                       Formal_Charge:           0.0300005
##########                     HBond_Acceptors:                   9
##########                        HBond_Donors:                   1
##########                         Heavy_Atoms:                  22
##########                          Grid_Score:          -27.021318
##########                     Grid_vdw_energy:          -26.180555
##########                      Grid_es_energy:           -0.840763
##########           Internal_energy_repulsive:            6.567102

@<TRIPOS>MOLECULE
ZINC000899027326
 35 36 1 0 0
SMALL
USER_CHARGES


@<TRIPOS>ATOM
      1 C1         -0.3005    5.5362   48.4045 C.3     1  ZINC000899027326   -0.1500
      2 C2         -0.7150    4.3069   49.2158 C.3     1  ZINC000899027326    0.1100
      3 H3          0.0935    3.9948   49.8769 H       1  ZINC000899027326    0.1400
      4 C4         -1.9739    4.5921   50.0106 C.2     1  ZINC000899027326    0.5300
      5 O5         -2.1202    5.4295   50.8750 O.2     1  ZINC000899027326   -0.4500
      6 N6         -2.8968    3.7217   49.5559 N.am    1  ZINC000899027326   -0.3700
      7 N7         -4.2129    3.6506   50.0309 N.am    1  ZINC000899027326   -0.5000
      8 C8         -4.4971    2.9096   51.1203 C.2     1  ZINC000899027326    0.5200
      9 O9         -3.6133    2.3055   51.6901 O.2     1  ZINC000899027326   -0.4800
     10 C10        -5.9131    2.8318   51.6301 C.3     1  ZINC000899027326    0.0500
     11 O11        -6.3067    1.4622   51.7362 O.3     1  ZINC000899027326   -0.2700
     12 C12        -7.5717    1.2152   52.1682 C.ar    1  ZINC000899027326    0.1400
     13 C13        -8.3657    2.2567   52.6234 C.ar    1  ZINC000899027326   -0.1900
     14 C14        -9.6515    2.0038   53.0623 C.ar    1  ZINC000899027326   -0.0600
     15 C15       -10.1472    0.7125   53.0479 C.ar    1  ZINC000899027326   -0.0600
     16 Cl16      -11.7630    0.3981   53.5992 Cl      1  ZINC000899027326   -0.0500
     17 C17        -9.3570   -0.3291   52.5940 C.ar    1  ZINC000899027326   -0.0600
     18 C18        -8.0726   -0.0797   52.1489 C.ar    1  ZINC000899027326   -0.0500
     19 Cl19       -7.0813   -1.3863   51.5795 Cl      1  ZINC000899027326   -0.0300
     20 C20        -2.4012    2.9344   48.5944 C.2     1  ZINC000899027326    0.7000
     21 O21        -3.0438    2.0706   48.0304 O.2     1  ZINC000899027326   -0.5200
     22 N22        -1.1083    3.2042   48.3217 N.am    1  ZINC000899027326   -0.6200
     23 C23        -0.2648    2.5343   47.3288 C.3     1  ZINC000899027326    0.1200
     24 H24        -1.1248    5.8405   47.7594 H       1  ZINC000899027326    0.0700
     25 H25        -0.0498    6.3516   49.0829 H       1  ZINC000899027326    0.0900
     26 H26         0.5682    5.2920   47.7932 H       1  ZINC000899027326    0.0900
     27 H27        -4.9196    4.1348   49.5759 H       1  ZINC000899027326    0.4300
     28 H28        -5.9727    3.3039   52.6107 H       1  ZINC000899027326    0.1100
     29 H29        -6.5776    3.3482   50.9373 H       1  ZINC000899027326    0.1100
     30 H30        -7.9793    3.2652   52.6353 H       1  ZINC000899027326    0.1500
     31 H31       -10.2697    2.8150   53.4172 H       1  ZINC000899027326    0.1500
     32 H32        -9.7458   -1.3367   52.5835 H       1  ZINC000899027326    0.1500
     33 H33        -0.8432    1.7612   46.8230 H       1  ZINC000899027326    0.0900
     34 H34         0.0847    3.2632   46.5977 H       1  ZINC000899027326    0.0700
     35 H35         0.5917    2.0798   47.8268 H       1  ZINC000899027326    0.0700
@<TRIPOS>BOND
     1     1     2    1
     2     1    24    1
     3     1    25    1
     4     1    26    1
     5     2     3    1
     6     2    22    1
     7     2     4    1
     8     4     5    2
     9     4     6   am
    10     6     7    1
    11     6    20   am
    12     7     8   am
    13     7    27    1
    14     8     9    2
    15     8    10    1
    16    10    11    1
    17    10    28    1
    18    10    29    1
    19    11    12    1
    20    12    18   ar
    21    12    13   ar
    22    13    14   ar
    23    13    30    1
    24    14    15   ar
    25    14    31    1
    26    15    16    1
    27    15    17   ar
    28    17    18   ar
    29    17    32    1
    30    18    19    1
    31    20    21    2
    32    20    22   am
    33    22    23    1
    34    23    33    1
    35    23    34    1
    36    23    35    1
@<TRIPOS>SUBSTRUCTURE
     1 ZINC000899027326        1 TEMP              0 ****  ****    0 ROOT


##########                                Name:    ZINC000151850193
##########                DOCK_Rotatable_Bonds:                  11
##########                         Heavy_Atoms:                  23
##########                    Molecular_Weight:             328.452
##########                DOCK_Rotatable_Bonds:                  11
##########                       Formal_Charge:            0.039999
##########                     HBond_Acceptors:                   6
##########                        HBond_Donors:                   2
##########                         Heavy_Atoms:                  23
##########                          Grid_Score:          -27.017786
##########                     Grid_vdw_energy:          -26.282516
##########                      Grid_es_energy:           -0.735270
##########           Internal_energy_repulsive:           36.389843

@<TRIPOS>MOLECULE
ZINC000151850193
 55 55 1 0 0
SMALL
USER_CHARGES


@<TRIPOS>ATOM
      1 C1          5.0055   -1.2909   50.2801 C.3     1  ZINC000151850193   -0.1500
      2 C2          3.6412   -1.2695   49.5877 C.3     1  ZINC000151850193   -0.1000
      3 C3          3.3206    0.1569   49.1365 C.3     1  ZINC000151850193   -0.0800
      4 C4          4.4268    0.7706   48.2759 C.3     1  ZINC000151850193   -0.1000
      5 C5          4.6843   -0.1244   47.0620 C.3     1  ZINC000151850193   -0.1500
      6 C6          1.9133    0.3113   48.5361 C.3     1  ZINC000151850193    0.1400
      7 H7          1.5156   -0.6109   48.1125 H       1  ZINC000151850193    0.1000
      8 N8          1.7841    1.4555   47.6303 N.am    1  ZINC000151850193   -0.7000
      9 C9          0.7410    1.5272   46.7797 C.2     1  ZINC000151850193    0.5200
     10 O10        -0.0897    0.6437   46.7631 O.2     1  ZINC000151850193   -0.5300
     11 C11         0.6071    2.7050   45.8492 C.3     1  ZINC000151850193   -0.1500
     12 C12         0.1293    3.9260   46.6375 C.3     1  ZINC000151850193    0.1500
     13 N13        -1.1241    3.6041   47.3242 N.am    1  ZINC000151850193   -0.7100
     14 C14        -1.4750    4.2783   48.4373 C.2     1  ZINC000151850193    0.6500
     15 O15        -0.7511    5.1520   48.8719 O.2     1  ZINC000151850193   -0.5600
     16 O16        -2.6277    3.9835   49.0675 O.3     1  ZINC000151850193   -0.3700
     17 C17        -2.6003    3.9696   50.5191 C.3     1  ZINC000151850193    0.1400
     18 C18        -3.8368    3.2383   51.0456 C.3     1  ZINC000151850193   -0.1800
     19 C19        -1.3389    3.2485   50.9985 C.3     1  ZINC000151850193   -0.1400
     20 C20        -2.5963    5.4071   51.0431 C.3     1  ZINC000151850193   -0.1800
     21 C21         1.4205    0.5956   49.9648 C.3     1  ZINC000151850193   -0.1700
     22 C22         2.8485    1.0727   50.2781 C.3     1  ZINC000151850193    0.0700
     23 H23         3.2059    0.7650   51.2609 H       1  ZINC000151850193    0.0800
     24 O24         3.0566    2.4631   50.0222 O.3     1  ZINC000151850193   -0.3700
     25 C25         3.2181    3.2534   51.2018 C.3     1  ZINC000151850193    0.0300
     26 H26         5.7759   -0.9801   49.5744 H       1  ZINC000151850193    0.0600
     27 H27         4.9929   -0.6070   51.1288 H       1  ZINC000151850193    0.0600
     28 H28         5.2194   -2.3007   50.6302 H       1  ZINC000151850193    0.0600
     29 H29         3.6638   -1.9287   48.7199 H       1  ZINC000151850193    0.0700
     30 H30         2.8751   -1.6112   50.2837 H       1  ZINC000151850193    0.0700
     31 H31         4.1182    1.7601   47.9388 H       1  ZINC000151850193    0.0700
     32 H32         5.3400    0.8557   48.8648 H       1  ZINC000151850193    0.0700
     33 H33         5.0626   -1.0904   47.3965 H       1  ZINC000151850193    0.0500
     34 H34         3.7536   -0.2690   46.5132 H       1  ZINC000151850193    0.0500
     35 H35         5.4200    0.3484   46.4115 H       1  ZINC000151850193    0.0500
     36 H36         2.4491    2.1615   47.6428 H       1  ZINC000151850193    0.4100
     37 H37         1.5743    2.9212   45.3954 H       1  ZINC000151850193    0.1000
     38 H38        -0.1163    2.4707   45.0682 H       1  ZINC000151850193    0.1000
     39 H39         0.8855    4.2029   47.3721 H       1  ZINC000151850193    0.0800
     40 H40        -0.0347    4.7587   45.9535 H       1  ZINC000151850193    0.0800
     41 H41        -1.7014    2.9058   46.9779 H       1  ZINC000151850193    0.4100
     42 H42        -3.8397    2.2142   50.6723 H       1  ZINC000151850193    0.0600
     43 H43        -3.8163    3.2279   52.1353 H       1  ZINC000151850193    0.0700
     44 H44        -4.7356    3.7520   50.7040 H       1  ZINC000151850193    0.0900
     45 H45        -0.4579    3.7695   50.6235 H       1  ZINC000151850193    0.0700
     46 H46        -1.3182    3.2380   52.0882 H       1  ZINC000151850193    0.0800
     47 H47        -1.3416    2.2245   50.6252 H       1  ZINC000151850193    0.0700
     48 H48        -3.4950    5.9207   50.7015 H       1  ZINC000151850193    0.0900
     49 H49        -2.5758    5.3966   52.1328 H       1  ZINC000151850193    0.0700
     50 H50        -1.7153    5.9280   50.6680 H       1  ZINC000151850193    0.0600
     51 H51         0.6737    1.3877   50.0196 H       1  ZINC000151850193    0.0800
     52 H52         1.1295   -0.3006   50.5127 H       1  ZINC000151850193    0.1000
     53 H53         2.3242    3.1704   51.8199 H       1  ZINC000151850193    0.0400
     54 H54         4.0820    2.8967   51.7627 H       1  ZINC000151850193    0.0400
     55 H55         3.3712    4.2958   50.9226 H       1  ZINC000151850193    0.0900
@<TRIPOS>BOND
     1     1     2    1
     2     1    26    1
     3     1    27    1
     4     1    28    1
     5     2     3    1
     6     2    29    1
     7     2    30    1
     8     3    22    1
     9     3     4    1
    10     3     6    1
    11     4     5    1
    12     4    31    1
    13     4    32    1
    14     5    33    1
    15     5    34    1
    16     5    35    1
    17     6     7    1
    18     6     8    1
    19     6    21    1
    20     8     9   am
    21     8    36    1
    22     9    10    2
    23     9    11    1
    24    11    12    1
    25    11    37    1
    26    11    38    1
    27    12    13    1
    28    12    39    1
    29    12    40    1
    30    13    14   am
    31    13    41    1
    32    14    15    2
    33    14    16    1
    34    16    17    1
    35    17    18    1
    36    17    19    1
    37    17    20    1
    38    18    42    1
    39    18    43    1
    40    18    44    1
    41    19    45    1
    42    19    46    1
    43    19    47    1
    44    20    48    1
    45    20    49    1
    46    20    50    1
    47    21    22    1
    48    21    51    1
    49    21    52    1
    50    22    23    1
    51    22    24    1
    52    24    25    1
    53    25    53    1
    54    25    54    1
    55    25    55    1
@<TRIPOS>SUBSTRUCTURE
     1 ZINC000151850193        1 TEMP              0 ****  ****    0 ROOT


##########                                Name:    ZINC000535362552
##########                DOCK_Rotatable_Bonds:                   5
##########                         Heavy_Atoms:                  26
##########                    Molecular_Weight:             416.228
##########                DOCK_Rotatable_Bonds:                   5
##########                       Formal_Charge:         -0.00999981
##########                     HBond_Acceptors:                   6
##########                        HBond_Donors:                   1
##########                         Heavy_Atoms:                  26
##########                          Grid_Score:          -26.959787
##########                     Grid_vdw_energy:          -26.222210
##########                      Grid_es_energy:           -0.737577
##########           Internal_energy_repulsive:            4.326478

@<TRIPOS>MOLECULE
ZINC000535362552
 40 43 1 0 0
SMALL
USER_CHARGES


@<TRIPOS>ATOM
      1 C1        -13.6168   -0.3268   55.3664 C.3     1  ZINC000535362552    0.0300
      2 O2        -12.3119    0.1173   54.9100 O.3     1  ZINC000535362552   -0.3400
      3 C3        -11.6707   -0.6736   54.0256 C.2     1  ZINC000535362552    0.5500
      4 O4        -12.1883   -1.7067   53.6474 O.2     1  ZINC000535362552   -0.4800
      5 C5        -10.3480   -0.2872   53.5197 C.2     1  ZINC000535362552   -0.0100
      6 C6         -9.6876    0.8541   53.8488 C.2     1  ZINC000535362552   -0.0900
      7 C7         -8.4226    0.8157   53.1161 C.ar    1  ZINC000535362552   -0.1300
      8 C8         -7.3248    1.6746   53.0268 C.ar    1  ZINC000535362552   -0.0600
      9 C9         -6.2565    1.3333   52.2187 C.ar    1  ZINC000535362552    0.1200
     10 N10        -5.1509    2.1887   52.1236 N.am    1  ZINC000535362552   -0.6700
     11 C11        -5.2765    3.3877   51.5208 C.2     1  ZINC000535362552    0.5200
     12 O12        -6.3465    3.7261   51.0608 O.2     1  ZINC000535362552   -0.5000
     13 C13        -4.0874    4.3077   51.4184 C.3     1  ZINC000535362552   -0.1000
     14 H14        -4.3829    5.2808   51.0260 H       1  ZINC000535362552    0.1300
     15 C15        -3.3826    4.4547   52.7877 C.3     1  ZINC000535362552    0.0600
     16 O16        -1.9934    4.5283   52.4245 O.3     1  ZINC000535362552   -0.2900
     17 C17        -1.7994    3.8577   51.2555 C.ar    1  ZINC000535362552    0.1300
     18 C18        -0.6266    3.3538   50.6993 C.ar    1  ZINC000535362552   -0.1300
     19 C19        -0.6572    2.7058   49.4817 C.ar    1  ZINC000535362552   -0.0500
     20 C20        -1.8521    2.5510   48.8024 C.ar    1  ZINC000535362552   -0.1200
     21 Br21       -1.8863    1.6666   47.1313 Br      1  ZINC000535362552   -0.0400
     22 C22        -3.0233    3.0458   49.3509 C.ar    1  ZINC000535362552   -0.0100
     23 C23        -2.9952    3.6891   50.5675 C.ar    1  ZINC000535362552   -0.1600
     24 C24        -6.2764    0.1400   51.4986 C.ar    1  ZINC000535362552   -0.0900
     25 C25        -7.3550   -0.7123   51.5805 C.ar    1  ZINC000535362552   -0.0900
     26 C26        -8.4394   -0.3887   52.3875 C.ar    1  ZINC000535362552    0.0700
     27 O27        -9.6016   -1.0144   52.6623 O.3     1  ZINC000535362552   -0.1700
     28 H28       -13.5200   -1.2956   55.8565 H       1  ZINC000535362552    0.0700
     29 H29       -14.0210    0.3987   56.0724 H       1  ZINC000535362552    0.1100
     30 H30       -14.2889   -0.4168   54.5131 H       1  ZINC000535362552    0.0700
     31 H31       -10.0282    1.6321   54.5158 H       1  ZINC000535362552    0.1800
     32 H32        -7.3109    2.5990   53.5850 H       1  ZINC000535362552    0.1400
     33 H33        -4.2952    1.9181   52.4916 H       1  ZINC000535362552    0.4100
     34 H34        -3.6995    5.3692   53.2890 H       1  ZINC000535362552    0.1200
     35 H35        -3.5721    3.5837   53.4151 H       1  ZINC000535362552    0.0900
     36 H36         0.3107    3.4706   51.2232 H       1  ZINC000535362552    0.1400
     37 H37         0.2566    2.3176   49.0565 H       1  ZINC000535362552    0.1400
     38 H38        -3.9587    2.9274   48.8242 H       1  ZINC000535362552    0.1400
     39 H39        -5.4373   -0.1186   50.8697 H       1  ZINC000535362552    0.1500
     40 H40        -7.3582   -1.6336   51.0169 H       1  ZINC000535362552    0.1500
@<TRIPOS>BOND
     1     1     2    1
     2     1    28    1
     3     1    29    1
     4     1    30    1
     5     2     3    1
     6     3     4    2
     7     3     5    1
     8     5    27    1
     9     5     6    2
    10     6     7    1
    11     6    31    1
    12     7    26   ar
    13     7     8   ar
    14     8     9   ar
    15     8    32    1
    16     9    10    1
    17     9    24   ar
    18    10    11   am
    19    10    33    1
    20    11    12    2
    21    11    13    1
    22    13    14    1
    23    13    23    1
    24    13    15    1
    25    15    16    1
    26    15    34    1
    27    15    35    1
    28    16    17    1
    29    17    23   ar
    30    17    18   ar
    31    18    19   ar
    32    18    36    1
    33    19    20   ar
    34    19    37    1
    35    20    21    1
    36    20    22   ar
    37    22    23   ar
    38    22    38    1
    39    24    25   ar
    40    24    39    1
    41    25    26   ar
    42    25    40    1
    43    26    27    1
@<TRIPOS>SUBSTRUCTURE
     1 ZINC000535362552        1 TEMP              0 ****  ****    0 ROOT


##########                                Name:    ZINC000648570180
##########                DOCK_Rotatable_Bonds:                   4
##########                         Heavy_Atoms:                  25
##########                    Molecular_Weight:             342.484
##########                DOCK_Rotatable_Bonds:                   4
##########                       Formal_Charge:          0.00999971
##########                     HBond_Acceptors:                   5
##########                        HBond_Donors:                   0
##########                         Heavy_Atoms:                  25
##########                          Grid_Score:          -26.905409
##########                     Grid_vdw_energy:          -26.732859
##########                      Grid_es_energy:           -0.172550
##########           Internal_energy_repulsive:           83.597046

@<TRIPOS>MOLECULE
ZINC000648570180
 55 58 1 0 0
SMALL
USER_CHARGES


@<TRIPOS>ATOM
      1 C1          3.0717   -0.6988   49.9495 C.3     1  ZINC000648570180   -0.1500
      2 C2          3.9217   -0.0584   48.8502 C.3     1  ZINC000648570180   -0.0600
      3 C3          5.2607    0.4055   49.4269 C.3     1  ZINC000648570180   -0.1400
      4 C4          4.1583   -1.0690   47.7089 C.3     1  ZINC000648570180   -0.1200
      5 C5          4.1052   -0.2081   46.4223 C.3     1  ZINC000648570180   -0.1300
      6 C6          2.9794    0.8080   46.7370 C.3     1  ZINC000648570180   -0.1200
      7 C7          3.1721    1.1349   48.2323 C.3     1  ZINC000648570180   -0.0700
      8 H8          3.7628    2.0444   48.3425 H       1  ZINC000648570180    0.0800
      9 C9          1.8117    1.3088   48.9104 C.3     1  ZINC000648570180   -0.1000
     10 H10         1.3314    0.3435   49.0710 H       1  ZINC000648570180    0.1000
     11 C11         1.9506    2.0894   50.2440 C.3     1  ZINC000648570180   -0.1400
     12 C12         0.5625    2.7434   50.4080 C.3     1  ZINC000648570180    0.1200
     13 N13        -0.0493    2.8097   49.0727 N.am    1  ZINC000648570180   -0.6000
     14 C14        -1.2738    3.2983   48.7930 C.2     1  ZINC000648570180    0.5800
     15 O15        -1.6792    3.3024   47.6479 O.2     1  ZINC000648570180   -0.5200
     16 C16        -2.1273    3.8317   49.8846 C.ar    1  ZINC000648570180    0.1600
     17 C17        -1.6325    4.7945   50.7638 C.ar    1  ZINC000648570180   -0.2000
     18 C18        -2.4680    5.2635   51.7684 C.ar    1  ZINC000648570180    0.1800
     19 N19        -3.6968    4.7875   51.8605 N.ar    1  ZINC000648570180   -0.5400
     20 C20        -4.1392    3.8720   51.0095 C.ar    1  ZINC000648570180    0.4800
     21 N21        -5.4336    3.3993   51.1407 N.3     1  ZINC000648570180   -0.4400
     22 C22        -5.5790    2.0629   50.5088 C.3     1  ZINC000648570180    0.0500
     23 C23        -6.8485    1.4872   51.1851 C.3     1  ZINC000648570180   -0.1200
     24 C24        -6.7239    1.9923   52.6409 C.3     1  ZINC000648570180   -0.1300
     25 C25        -5.7880    3.2128   52.5645 C.3     1  ZINC000648570180    0.0400
     26 N26        -3.3777    3.4023   50.0353 N.ar    1  ZINC000648570180   -0.5000
     27 C27         0.8987    2.2534   48.0896 C.3     1  ZINC000648570180    0.1100
     28 H28         2.0806   -0.9258   49.5567 H       1  ZINC000648570180    0.0600
     29 H29         3.5481   -1.6192   50.2873 H       1  ZINC000648570180    0.0500
     30 H30         2.9809   -0.0078   50.7876 H       1  ZINC000648570180    0.0700
     31 H31         5.7891   -0.4485   49.8510 H       1  ZINC000648570180    0.0500
     32 H32         5.8636    0.8486   48.6343 H       1  ZINC000648570180    0.0500
     33 H33         5.0836    1.1466   50.2062 H       1  ZINC000648570180    0.0500
     34 H34         5.1358   -1.5399   47.8129 H       1  ZINC000648570180    0.0600
     35 H35         3.3703   -1.8221   47.6968 H       1  ZINC000648570180    0.0700
     36 H36         5.0538    0.3039   46.2608 H       1  ZINC000648570180    0.0700
     37 H37         3.8433   -0.8198   45.5589 H       1  ZINC000648570180    0.0700
     38 H38         3.0967    1.7069   46.1318 H       1  ZINC000648570180    0.0700
     39 H39         2.0012    0.3580   46.5680 H       1  ZINC000648570180    0.0700
     40 H40         2.1561    1.4085   51.0700 H       1  ZINC000648570180    0.0900
     41 H41         2.7282    2.8494   50.1667 H       1  ZINC000648570180    0.0800
     42 H42        -0.0568    2.1378   51.0697 H       1  ZINC000648570180    0.0800
     43 H43         0.6719    3.7482   50.8158 H       1  ZINC000648570180    0.0700
     44 H44        -0.6232    5.1662   50.6658 H       1  ZINC000648570180    0.1600
     45 H45        -2.1172    6.0089   52.4668 H       1  ZINC000648570180    0.1800
     46 H46        -5.7264    2.1600   49.4332 H       1  ZINC000648570180    0.1000
     47 H47        -4.7116    1.4391   50.7245 H       1  ZINC000648570180    0.0500
     48 H48        -7.7489    1.8828   50.7153 H       1  ZINC000648570180    0.0800
     49 H49        -6.8422    0.3977   51.1530 H       1  ZINC000648570180    0.0800
     50 H50        -7.7008    2.2880   53.0236 H       1  ZINC000648570180    0.0800
     51 H51        -6.2871    1.2195   53.2734 H       1  ZINC000648570180    0.0700
     52 H52        -4.8876    3.0274   53.1500 H       1  ZINC000648570180    0.0900
     53 H53        -6.3015    4.0985   52.9384 H       1  ZINC000648570180    0.0900
     54 H54         1.4881    3.0511   47.6376 H       1  ZINC000648570180    0.0700
     55 H55         0.3644    1.6938   47.3219 H       1  ZINC000648570180    0.0800
@<TRIPOS>BOND
     1     1     2    1
     2     1    28    1
     3     1    29    1
     4     1    30    1
     5     2     7    1
     6     2     3    1
     7     2     4    1
     8     3    31    1
     9     3    32    1
    10     3    33    1
    11     4     5    1
    12     4    34    1
    13     4    35    1
    14     5     6    1
    15     5    36    1
    16     5    37    1
    17     6     7    1
    18     6    38    1
    19     6    39    1
    20     7     8    1
    21     7     9    1
    22     9    10    1
    23     9    27    1
    24     9    11    1
    25    11    12    1
    26    11    40    1
    27    11    41    1
    28    12    13    1
    29    12    42    1
    30    12    43    1
    31    13    14   am
    32    13    27    1
    33    14    15    2
    34    14    16    1
    35    16    26   ar
    36    16    17   ar
    37    17    18   ar
    38    17    44    1
    39    18    19   ar
    40    18    45    1
    41    19    20   ar
    42    20    21    1
    43    20    26   ar
    44    21    25    1
    45    21    22    1
    46    22    23    1
    47    22    46    1
    48    22    47    1
    49    23    24    1
    50    23    48    1
    51    23    49    1
    52    24    25    1
    53    24    50    1
    54    24    51    1
    55    25    52    1
    56    25    53    1
    57    27    54    1
    58    27    55    1
@<TRIPOS>SUBSTRUCTURE
     1 ZINC000648570180        1 TEMP              0 ****  ****    0 ROOT


##########                                Name:    ZINC000942890482
##########                DOCK_Rotatable_Bonds:                   8
##########                         Heavy_Atoms:                  25
##########                    Molecular_Weight:             346.445
##########                DOCK_Rotatable_Bonds:                   8
##########                       Formal_Charge:          -0.0100004
##########                     HBond_Acceptors:                   5
##########                        HBond_Donors:                   0
##########                         Heavy_Atoms:                  25
##########                          Grid_Score:          -26.894276
##########                     Grid_vdw_energy:          -26.386923
##########                      Grid_es_energy:           -0.507354
##########           Internal_energy_repulsive:           26.231424

@<TRIPOS>MOLECULE
ZINC000942890482
 52 54 1 0 0
SMALL
USER_CHARGES


@<TRIPOS>ATOM
      1 C1          0.6799    4.8850   47.0084 C.3     1  ZINC000942890482   -0.1700
      2 C2          0.8766    4.9029   48.5256 C.3     1  ZINC000942890482    0.1000
      3 N3         -0.1802    4.1145   49.1643 N.am    1  ZINC000942890482   -0.6000
      4 C4         -1.3628    4.6886   49.4620 C.2     1  ZINC000942890482    0.5700
      5 O5         -1.5523    5.8606   49.2005 O.2     1  ZINC000942890482   -0.5100
      6 C6         -2.4283    3.8937   50.1060 C.ar    1  ZINC000942890482   -0.1400
      7 C7         -3.2141    3.0271   49.3435 C.ar    1  ZINC000942890482   -0.0600
      8 C8         -4.2068    2.2872   49.9497 C.ar    1  ZINC000942890482   -0.1600
      9 C9         -4.4259    2.4025   51.3137 C.ar    1  ZINC000942890482    0.1300
     10 F10        -5.4001    1.6752   51.9029 F       1  ZINC000942890482   -0.1300
     11 C11        -3.6482    3.2614   52.0758 C.ar    1  ZINC000942890482   -0.1600
     12 C12        -2.6499    4.0021   51.4808 C.ar    1  ZINC000942890482   -0.0100
     13 C13        -1.8055    4.9349   52.3101 C.3     1  ZINC000942890482   -0.1200
     14 C14         0.0484    2.7022   49.4794 C.3     1  ZINC000942890482    0.1400
     15 H15        -0.8961    2.1637   49.5574 H       1  ZINC000942890482    0.1100
     16 C16         0.8840    2.5503   50.7779 C.3     1  ZINC000942890482   -0.1500
     17 C17         1.5800    1.1867   50.5835 C.3     1  ZINC000942890482    0.1100
     18 N18         1.6024    0.9100   49.1397 N.am    1  ZINC000942890482   -0.6200
     19 C19         2.1078   -0.1966   48.5597 C.2     1  ZINC000942890482    0.5300
     20 O20         2.0733   -0.3189   47.3536 O.2     1  ZINC000942890482   -0.5400
     21 C21         2.7158   -1.2823   49.4100 C.3     1  ZINC000942890482   -0.1300
     22 C22         4.1371   -0.8811   49.8099 C.3     1  ZINC000942890482   -0.0700
     23 C23         4.8845   -0.3594   48.5810 C.3     1  ZINC000942890482   -0.1600
     24 C24         5.2286    1.1309   48.5435 C.3     1  ZINC000942890482   -0.1800
     25 C25         6.3320    0.0965   48.7754 C.3     1  ZINC000942890482   -0.1800
     26 C26         0.9787    2.0428   48.4308 C.3     1  ZINC000942890482    0.0900
     27 H27         0.7252    3.8572   46.6482 H       1  ZINC000942890482    0.0600
     28 H28        -0.2919    5.3134   46.7629 H       1  ZINC000942890482    0.0600
     29 H29         1.4661    5.4716   46.5332 H       1  ZINC000942890482    0.0700
     30 H30         1.8483    4.4744   48.7710 H       1  ZINC000942890482    0.0900
     31 H31         0.8312    5.9306   48.8858 H       1  ZINC000942890482    0.0900
     32 H32        -3.0444    2.9368   48.2807 H       1  ZINC000942890482    0.1400
     33 H33        -4.8153    1.6169   49.3608 H       1  ZINC000942890482    0.1400
     34 H34        -3.8230    3.3474   53.1381 H       1  ZINC000942890482    0.1400
     35 H35        -0.9722    4.3820   52.7438 H       1  ZINC000942890482    0.0900
     36 H36        -1.4208    5.7355   51.6783 H       1  ZINC000942890482    0.0700
     37 H37        -2.4128    5.3619   53.1083 H       1  ZINC000942890482    0.0700
     38 H38         1.6195    3.3506   50.8590 H       1  ZINC000942890482    0.1000
     39 H39         0.2355    2.5308   51.6538 H       1  ZINC000942890482    0.0900
     40 H40         2.5989    1.2324   50.9679 H       1  ZINC000942890482    0.0700
     41 H41         1.0207    0.4077   51.1016 H       1  ZINC000942890482    0.0700
     42 H42         2.1119   -1.4225   50.3065 H       1  ZINC000942890482    0.0900
     43 H43         2.7467   -2.2130   48.8435 H       1  ZINC000942890482    0.0900
     44 H44         4.0941   -0.0992   50.5681 H       1  ZINC000942890482    0.0700
     45 H45         4.6600   -1.7488   50.2119 H       1  ZINC000942890482    0.0700
     46 H46         4.6311   -0.8417   47.6368 H       1  ZINC000942890482    0.1000
     47 H47         5.2018    1.6294   47.5746 H       1  ZINC000942890482    0.0900
     48 H48         4.9227    1.7397   49.3943 H       1  ZINC000942890482    0.0900
     49 H49         6.7518    0.0248   49.7787 H       1  ZINC000942890482    0.0900
     50 H50         7.0309   -0.0855   47.9590 H       1  ZINC000942890482    0.0900
     51 H51         0.3993    1.6851   47.5797 H       1  ZINC000942890482    0.0800
     52 H52         1.7400    2.7502   48.1022 H       1  ZINC000942890482    0.0900
@<TRIPOS>BOND
     1     1     2    1
     2     1    27    1
     3     1    28    1
     4     1    29    1
     5     2     3    1
     6     2    30    1
     7     2    31    1
     8     3     4   am
     9     3    14    1
    10     4     5    2
    11     4     6    1
    12     6    12   ar
    13     6     7   ar
    14     7     8   ar
    15     7    32    1
    16     8     9   ar
    17     8    33    1
    18     9    10    1
    19     9    11   ar
    20    11    12   ar
    21    11    34    1
    22    12    13    1
    23    13    35    1
    24    13    36    1
    25    13    37    1
    26    14    15    1
    27    14    26    1
    28    14    16    1
    29    16    17    1
    30    16    38    1
    31    16    39    1
    32    17    18    1
    33    17    40    1
    34    17    41    1
    35    18    19   am
    36    18    26    1
    37    19    20    2
    38    19    21    1
    39    21    22    1
    40    21    42    1
    41    21    43    1
    42    22    23    1
    43    22    44    1
    44    22    45    1
    45    23    25    1
    46    23    24    1
    47    23    46    1
    48    24    25    1
    49    24    47    1
    50    24    48    1
    51    25    49    1
    52    25    50    1
    53    26    51    1
    54    26    52    1
@<TRIPOS>SUBSTRUCTURE
     1 ZINC000942890482        1 TEMP              0 ****  ****    0 ROOT


##########                                Name:    ZINC000518242403
##########                DOCK_Rotatable_Bonds:                   6
##########                         Heavy_Atoms:                  27
##########                    Molecular_Weight:             370.405
##########                DOCK_Rotatable_Bonds:                   6
##########                       Formal_Charge:          -0.0200004
##########                     HBond_Acceptors:                   7
##########                        HBond_Donors:                   1
##########                         Heavy_Atoms:                  27
##########                          Grid_Score:          -26.883289
##########                     Grid_vdw_energy:          -25.732908
##########                      Grid_es_energy:           -1.150380
##########           Internal_energy_repulsive:           12.023324

@<TRIPOS>MOLECULE
ZINC000518242403
 49 52 1 0 0
SMALL
USER_CHARGES


@<TRIPOS>ATOM
      1 C1         -0.2451    4.0990   62.6255 C.3     1  ZINC000518242403   -0.1800
      2 C2          0.8417    3.6071   61.6676 C.3     1  ZINC000518242403    0.1000
      3 N3          0.2487    2.7031   60.6790 N.am    1  ZINC000518242403   -0.6200
      4 C4          0.0015    1.3009   61.0239 C.3     1  ZINC000518242403    0.1500
      5 C5          1.3301    0.5434   61.0626 C.3     1  ZINC000518242403    0.0300
      6 H6          1.9646    0.9540   61.8481 H       1  ZINC000518242403    0.0900
      7 C7          1.0697   -0.9447   61.3330 C.3     1  ZINC000518242403    0.0300
      8 O8          2.3296   -1.6246   61.3489 O.3     1  ZINC000518242403   -0.3000
      9 C9          3.1944   -1.3336   60.3391 C.ar    1  ZINC000518242403    0.0500
     10 C10         4.2530   -2.1912   60.0810 C.ar    1  ZINC000518242403   -0.1100
     11 C11         5.1415   -1.9072   59.0608 C.ar    1  ZINC000518242403   -0.1200
     12 C12         4.9773   -0.7683   58.2952 C.ar    1  ZINC000518242403   -0.1200
     13 C13         3.9231    0.0901   58.5462 C.ar    1  ZINC000518242403   -0.1100
     14 C14         3.0275   -0.1894   59.5673 C.ar    1  ZINC000518242403    0.0500
     15 O15         1.9903    0.6615   59.7976 O.3     1  ZINC000518242403   -0.3000
     16 C16        -0.0696    3.1616   59.4522 C.2     1  ZINC000518242403    0.7100
     17 O17         0.1369    4.3251   59.1654 O.2     1  ZINC000518242403   -0.5700
     18 N18        -0.6168    2.3305   58.5433 N.am    1  ZINC000518242403   -0.6800
     19 C19        -0.9478    2.8071   57.2677 C.ar    1  ZINC000518242403    0.1700
     20 C20        -2.2290    3.2760   57.0129 C.ar    1  ZINC000518242403   -0.1000
     21 C21        -2.5555    3.7474   55.7521 C.ar    1  ZINC000518242403    0.0500
     22 C22        -1.5965    3.7497   54.7421 C.ar    1  ZINC000518242403    0.0200
     23 C23        -0.3189    3.2801   55.0004 C.ar    1  ZINC000518242403   -0.0800
     24 C24         0.0075    2.8156   56.2602 C.ar    1  ZINC000518242403   -0.1000
     25 C25         1.3983    2.3055   56.5375 C.3     1  ZINC000518242403   -0.1100
     26 O26        -2.1607    4.2576   53.6065 O.3     1  ZINC000518242403   -0.3100
     27 C27        -3.5830    4.1847   53.8183 C.3     1  ZINC000518242403    0.2100
     28 O28        -3.7195    4.2535   55.2500 O.3     1  ZINC000518242403   -0.3100
     29 H29        -1.0128    4.6297   62.0623 H       1  ZINC000518242403    0.0600
     30 H30        -0.6930    3.2462   63.1356 H       1  ZINC000518242403    0.0600
     31 H31         0.1962    4.7717   63.3610 H       1  ZINC000518242403    0.0700
     32 H32         1.2896    4.4600   61.1574 H       1  ZINC000518242403    0.1000
     33 H33         1.6094    3.0765   62.2307 H       1  ZINC000518242403    0.0700
     34 H34        -0.4766    1.2461   62.0019 H       1  ZINC000518242403    0.1100
     35 H35        -0.6510    0.8522   60.2748 H       1  ZINC000518242403    0.0900
     36 H36         0.5763   -1.0622   62.2977 H       1  ZINC000518242403    0.1300
     37 H37         0.4396   -1.3567   60.5446 H       1  ZINC000518242403    0.0800
     38 H38         4.3836   -3.0817   60.6779 H       1  ZINC000518242403    0.1300
     39 H39         5.9652   -2.5766   58.8614 H       1  ZINC000518242403    0.1300
     40 H40         5.6737   -0.5485   57.4997 H       1  ZINC000518242403    0.1300
     41 H41         3.7970    0.9794   57.9466 H       1  ZINC000518242403    0.1300
     42 H42        -0.7816    1.4023   58.7720 H       1  ZINC000518242403    0.4100
     43 H43        -2.9713    3.2730   57.7974 H       1  ZINC000518242403    0.1500
     44 H44         0.4247    3.2820   54.2173 H       1  ZINC000518242403    0.1400
     45 H45         2.0262    3.1291   56.8775 H       1  ZINC000518242403    0.0800
     46 H46         1.3564    1.5377   57.3100 H       1  ZINC000518242403    0.0700
     47 H47         1.8180    1.8810   55.6256 H       1  ZINC000518242403    0.0800
     48 H48        -4.0846    5.0286   53.3447 H       1  ZINC000518242403    0.1300
     49 H49        -3.9785    3.2417   53.4407 H       1  ZINC000518242403    0.0900
@<TRIPOS>BOND
     1     1     2    1
     2     1    29    1
     3     1    30    1
     4     1    31    1
     5     2     3    1
     6     2    32    1
     7     2    33    1
     8     3     4    1
     9     3    16   am
    10     4     5    1
    11     4    34    1
    12     4    35    1
    13     5     6    1
    14     5    15    1
    15     5     7    1
    16     7     8    1
    17     7    36    1
    18     7    37    1
    19     8     9    1
    20     9    14   ar
    21     9    10   ar
    22    10    11   ar
    23    10    38    1
    24    11    12   ar
    25    11    39    1
    26    12    13   ar
    27    12    40    1
    28    13    14   ar
    29    13    41    1
    30    14    15    1
    31    16    17    2
    32    16    18   am
    33    18    19    1
    34    18    42    1
    35    19    24   ar
    36    19    20   ar
    37    20    21   ar
    38    20    43    1
    39    21    28    1
    40    21    22   ar
    41    22    23   ar
    42    22    26    1
    43    23    24   ar
    44    23    44    1
    45    24    25    1
    46    25    45    1
    47    25    46    1
    48    25    47    1
    49    26    27    1
    50    27    28    1
    51    27    48    1
    52    27    49    1
@<TRIPOS>SUBSTRUCTURE
     1 ZINC000518242403        1 TEMP              0 ****  ****    0 ROOT


##########                                Name:    ZINC001193456967
##########                DOCK_Rotatable_Bonds:                   3
##########                         Heavy_Atoms:                  27
##########                    Molecular_Weight:             392.451
##########                DOCK_Rotatable_Bonds:                   3
##########                       Formal_Charge:           0.0300002
##########                     HBond_Acceptors:                   8
##########                        HBond_Donors:                   0
##########                         Heavy_Atoms:                  27
##########                          Grid_Score:          -26.854902
##########                     Grid_vdw_energy:          -27.358004
##########                      Grid_es_energy:            0.503101
##########           Internal_energy_repulsive:           36.432117

@<TRIPOS>MOLECULE
ZINC001193456967
 48 50 1 0 0
SMALL
USER_CHARGES


@<TRIPOS>ATOM
      1 C1         -6.9840    2.5322   52.5066 C.3     1  ZINC001193456967   -0.1400
      2 C2         -8.2178    1.6990   52.7397 C.ar    1  ZINC001193456967    0.0300
      3 C3         -9.3327    2.2649   53.3290 C.ar    1  ZINC001193456967   -0.1400
      4 C4        -10.4647    1.5004   53.5429 C.ar    1  ZINC001193456967    0.0300
      5 C5        -10.4816    0.1706   53.1670 C.ar    1  ZINC001193456967   -0.6900
      6 S6        -11.9240   -0.8039   53.4400 S.o2    1  ZINC001193456967    2.7100
      7 O7        -13.0315    0.0802   53.3345 O.2     1  ZINC001193456967   -0.9300
      8 O8        -11.7796   -1.9679   52.6378 O.2     1  ZINC001193456967   -0.9400
      9 N9        -11.8806   -1.3132   55.0151 N.am    1  ZINC001193456967   -1.0000
     10 C10       -10.8203   -2.1380   55.6226 C.3     1  ZINC001193456967    0.1100
     11 C11       -11.5011   -2.8352   56.8268 C.3     1  ZINC001193456967   -0.1200
     12 C12       -12.4463   -1.7170   57.3405 C.3     1  ZINC001193456967   -0.0500
     13 H13       -11.9078   -1.0235   57.9864 H       1  ZINC001193456967    0.1000
     14 C14       -13.6280   -2.3088   58.0646 C.ar    1  ZINC001193456967   -0.0800
     15 C15       -14.1294   -1.6861   59.1925 C.ar    1  ZINC001193456967   -0.0800
     16 C16       -15.2130   -2.2279   59.8574 C.ar    1  ZINC001193456967   -0.1500
     17 C17       -15.7968   -3.3944   59.3934 C.ar    1  ZINC001193456967    0.1000
     18 F18       -16.8565   -3.9247   60.0424 F       1  ZINC001193456967   -0.1400
     19 C19       -15.2940   -4.0169   58.2635 C.ar    1  ZINC001193456967   -0.1500
     20 C20       -14.2134   -3.4707   57.5974 C.ar    1  ZINC001193456967   -0.0800
     21 C21       -12.8899   -1.0124   56.0410 C.3     1  ZINC001193456967    0.1900
     22 C22       -12.9744    0.4978   56.2709 C.3     1  ZINC001193456967   -0.1800
     23 C23       -14.2510   -1.5510   55.5957 C.3     1  ZINC001193456967   -0.1800
     24 C24        -9.3669   -0.3952   52.5762 C.ar    1  ZINC001193456967    0.0400
     25 C25        -8.2366    0.3700   52.3589 C.ar    1  ZINC001193456967   -0.0600
     26 N26        -7.0432   -0.2355   51.7265 N.pl3   1  ZINC001193456967    0.0200
     27 O27        -6.3723    0.4144   50.9448 O.2     1  ZINC001193456967   -0.1400
     28 O28        -6.7321   -1.3838   51.9879 O.2     1  ZINC001193456967   -0.1500
     29 H29        -6.9960    2.9225   51.4889 H       1  ZINC001193456967    0.1100
     30 H30        -6.9667    3.3617   53.2135 H       1  ZINC001193456967    0.0900
     31 H31        -6.0967    1.9152   52.6486 H       1  ZINC001193456967    0.0800
     32 H32        -9.3195    3.3041   53.6227 H       1  ZINC001193456967    0.1600
     33 H33       -11.3356    1.9424   54.0039 H       1  ZINC001193456967    0.1600
     34 H34       -10.4605   -2.8791   54.9089 H       1  ZINC001193456967    0.0900
     35 H35        -9.9985   -1.5084   55.9637 H       1  ZINC001193456967    0.0700
     36 H36       -12.0683   -3.7081   56.5034 H       1  ZINC001193456967    0.0900
     37 H37       -10.7682   -3.1069   57.5865 H       1  ZINC001193456967    0.0900
     38 H38       -13.6739   -0.7762   59.5543 H       1  ZINC001193456967    0.1400
     39 H39       -15.6041   -1.7416   60.7389 H       1  ZINC001193456967    0.1400
     40 H40       -15.7484   -4.9271   57.9008 H       1  ZINC001193456967    0.1400
     41 H41       -13.8212   -3.9560   56.7158 H       1  ZINC001193456967    0.1300
     42 H42       -11.9963    0.8753   56.5687 H       1  ZINC001193456967    0.0700
     43 H43       -13.2881    0.9885   55.3495 H       1  ZINC001193456967    0.0600
     44 H44       -13.6992    0.7055   57.0580 H       1  ZINC001193456967    0.0800
     45 H45       -14.9631   -1.4618   56.4161 H       1  ZINC001193456967    0.0800
     46 H46       -14.6073   -0.9758   54.7412 H       1  ZINC001193456967    0.0900
     47 H47       -14.1521   -2.5989   55.3127 H       1  ZINC001193456967    0.0700
     48 H48        -9.3803   -1.4343   52.2822 H       1  ZINC001193456967    0.1600
@<TRIPOS>BOND
     1     1     2    1
     2     1    29    1
     3     1    30    1
     4     1    31    1
     5     2    25   ar
     6     2     3   ar
     7     3     4   ar
     8     3    32    1
     9     4     5   ar
    10     4    33    1
    11     5     6    1
    12     5    24   ar
    13     6     7    2
    14     6     8    2
    15     6     9   am
    16     9    21    1
    17     9    10    1
    18    10    11    1
    19    10    34    1
    20    10    35    1
    21    11    12    1
    22    11    36    1
    23    11    37    1
    24    12    13    1
    25    12    14    1
    26    12    21    1
    27    14    20   ar
    28    14    15   ar
    29    15    16   ar
    30    15    38    1
    31    16    17   ar
    32    16    39    1
    33    17    18    1
    34    17    19   ar
    35    19    20   ar
    36    19    40    1
    37    20    41    1
    38    21    22    1
    39    21    23    1
    40    22    42    1
    41    22    43    1
    42    22    44    1
    43    23    45    1
    44    23    46    1
    45    23    47    1
    46    24    25   ar
    47    24    48    1
    48    25    26    1
    49    26    27    2
    50    26    28    2
@<TRIPOS>SUBSTRUCTURE
     1 ZINC001193456967        1 TEMP              0 ****  ****    0 ROOT


##########                                Name:    ZINC000458730620
##########                DOCK_Rotatable_Bonds:                   9
##########                         Heavy_Atoms:                  25
##########                    Molecular_Weight:              375.44
##########                DOCK_Rotatable_Bonds:                   9
##########                       Formal_Charge:        -1.86265e-07
##########                     HBond_Acceptors:                   9
##########                        HBond_Donors:                   3
##########                         Heavy_Atoms:                  25
##########                          Grid_Score:          -26.854383
##########                     Grid_vdw_energy:          -25.445478
##########                      Grid_es_energy:           -1.408905
##########           Internal_energy_repulsive:           54.103226

@<TRIPOS>MOLECULE
ZINC000458730620
 48 49 1 0 0
SMALL
USER_CHARGES


@<TRIPOS>ATOM
      1 C1         -7.2371    2.5986   51.0270 C.3     1  ZINC000458730620   -0.1600
      2 C2         -6.6953    2.8549   52.4348 C.3     1  ZINC000458730620    0.2000
      3 C3         -7.3953    1.9249   53.4278 C.3     1  ZINC000458730620   -0.1600
      4 N4         -5.2533    2.5969   52.4575 N.am    1  ZINC000458730620   -0.7400
      5 C5         -4.4309    3.2961   51.6505 C.2     1  ZINC000458730620    0.7100
      6 O6         -4.8858    4.1399   50.9024 O.2     1  ZINC000458730620   -0.5800
      7 N7         -3.1042    3.0599   51.6725 N.am    1  ZINC000458730620   -0.7500
      8 C8         -2.2101    3.8211   50.7965 C.3     1  ZINC000458730620    0.1300
      9 C9         -2.2504    3.2278   49.3868 C.3     1  ZINC000458730620    0.1000
     10 N10        -1.3293    3.9664   48.5195 N.am    1  ZINC000458730620   -1.1100
     11 S11        -0.4098    3.1551   47.4065 S.o2    1  ZINC000458730620    2.7000
     12 O12        -1.3117    2.3768   46.6319 O.2     1  ZINC000458730620   -0.9400
     13 O13         0.4735    4.1136   46.8405 O.2     1  ZINC000458730620   -0.9400
     14 C14         0.5969    2.0136   48.2941 C.ar    1  ZINC000458730620   -0.7300
     15 C15         0.8028    2.1834   49.6500 C.ar    1  ZINC000458730620    0.0400
     16 C16         1.5919    1.2883   50.3477 C.ar    1  ZINC000458730620   -0.1800
     17 C17         2.1771    0.2206   49.6887 C.ar    1  ZINC000458730620    0.1900
     18 F18         2.9480   -0.6543   50.3710 F       1  ZINC000458730620   -0.1200
     19 C19         1.9716    0.0495   48.3303 C.ar    1  ZINC000458730620   -0.2100
     20 C20         1.1770    0.9433   47.6338 C.ar    1  ZINC000458730620    0.2200
     21 F21         0.9756    0.7775   46.3082 F       1  ZINC000458730620   -0.1100
     22 C22        -6.9592    4.3103   52.8258 C.3     1  ZINC000458730620   -0.1100
     23 C23        -7.4109    5.1919   51.6495 C.3     1  ZINC000458730620   -0.1400
     24 C24        -8.4005    5.8503   52.6252 C.3     1  ZINC000458730620   -0.1400
     25 C25        -8.3532    4.5422   53.4324 C.3     1  ZINC000458730620   -0.1400
     26 H26        -8.3191    2.7307   51.0246 H       1  ZINC000458730620    0.0600
     27 H27        -6.7836    3.3028   50.3295 H       1  ZINC000458730620    0.0500
     28 H28        -6.9946    1.5801   50.7242 H       1  ZINC000458730620    0.0800
     29 H29        -7.2073    0.8881   53.1492 H       1  ZINC000458730620    0.0800
     30 H30        -7.0094    2.1074   54.4306 H       1  ZINC000458730620    0.0500
     31 H31        -8.4683    2.1169   53.4109 H       1  ZINC000458730620    0.0600
     32 H32        -4.8905    1.9231   53.0533 H       1  ZINC000458730620    0.3900
     33 H33        -2.7414    2.3860   52.2683 H       1  ZINC000458730620    0.4000
     34 H34        -2.5338    4.8613   50.7622 H       1  ZINC000458730620    0.0800
     35 H35        -1.1922    3.7699   51.1832 H       1  ZINC000458730620    0.0800
     36 H36        -1.9522    2.1801   49.4249 H       1  ZINC000458730620    0.0900
     37 H37        -3.2626    3.3031   48.9897 H       1  ZINC000458730620    0.0700
     38 H38        -1.2580    4.9306   48.5971 H       1  ZINC000458730620    0.4300
     39 H39         0.3470    3.0162   50.1648 H       1  ZINC000458730620    0.1700
     40 H40         1.7524    1.4222   51.4073 H       1  ZINC000458730620    0.1600
     41 H41         2.4277   -0.7831   47.8154 H       1  ZINC000458730620    0.1600
     42 H42        -6.1499    4.7443   53.4128 H       1  ZINC000458730620    0.1100
     43 H43        -6.6368    5.8695   51.2893 H       1  ZINC000458730620    0.0700
     44 H44        -7.8943    4.6350   50.8469 H       1  ZINC000458730620    0.0800
     45 H45        -7.9853    6.7065   53.1568 H       1  ZINC000458730620    0.0800
     46 H46        -9.3760    6.0566   52.1849 H       1  ZINC000458730620    0.0700
     47 H47        -9.0942    3.8075   53.1171 H       1  ZINC000458730620    0.0800
     48 H48        -8.3398    4.6952   54.5114 H       1  ZINC000458730620    0.0700
@<TRIPOS>BOND
     1     1     2    1
     2     1    26    1
     3     1    27    1
     4     1    28    1
     5     2     3    1
     6     2     4    1
     7     2    22    1
     8     3    29    1
     9     3    30    1
    10     3    31    1
    11     4     5   am
    12     4    32    1
    13     5     6    2
    14     5     7   am
    15     7     8    1
    16     7    33    1
    17     8     9    1
    18     8    34    1
    19     8    35    1
    20     9    10    1
    21     9    36    1
    22     9    37    1
    23    10    11   am
    24    10    38    1
    25    11    12    2
    26    11    13    2
    27    11    14    1
    28    14    20   ar
    29    14    15   ar
    30    15    16   ar
    31    15    39    1
    32    16    17   ar
    33    16    40    1
    34    17    18    1
    35    17    19   ar
    36    19    20   ar
    37    19    41    1
    38    20    21    1
    39    22    25    1
    40    22    23    1
    41    22    42    1
    42    23    24    1
    43    23    43    1
    44    23    44    1
    45    24    25    1
    46    24    45    1
    47    24    46    1
    48    25    47    1
    49    25    48    1
@<TRIPOS>SUBSTRUCTURE
     1 ZINC000458730620        1 TEMP              0 ****  ****    0 ROOT


##########                                Name:    ZINC000461336108
##########                DOCK_Rotatable_Bonds:                   5
##########                         Heavy_Atoms:                  26
##########                    Molecular_Weight:             373.522
##########                DOCK_Rotatable_Bonds:                   5
##########                       Formal_Charge:        -3.42727e-07
##########                     HBond_Acceptors:                   7
##########                        HBond_Donors:                   0
##########                         Heavy_Atoms:                  26
##########                          Grid_Score:          -26.832991
##########                     Grid_vdw_energy:          -26.846519
##########                      Grid_es_energy:            0.013529
##########           Internal_energy_repulsive:           13.428761

@<TRIPOS>MOLECULE
ZINC000461336108
 53 56 1 0 0
SMALL
USER_CHARGES


@<TRIPOS>ATOM
      1 C1          0.4646    4.8242   46.5616 C.3     1  ZINC000461336108   -0.1300
      2 C2          0.4899    3.3545   46.1369 C.3     1  ZINC000461336108    0.0700
      3 H3         -0.3882    3.1388   45.5281 H       1  ZINC000461336108    0.0800
      4 C4          1.7313    3.0891   45.3332 C.2     1  ZINC000461336108    0.5300
      5 O5          2.0704    3.9038   44.5013 O.2     1  ZINC000461336108   -0.5300
      6 N6          2.4784    1.9922   45.4971 N.am    1  ZINC000461336108   -0.6100
      7 C7          3.6504    1.8088   44.6376 C.3     1  ZINC000461336108    0.0700
      8 C8          2.1782    0.9693   46.4948 C.3     1  ZINC000461336108    0.1200
      9 C9          0.7264    1.0999   46.9592 C.3     1  ZINC000461336108    0.0400
     10 N10         0.4762    2.5011   47.3325 N.3     1  ZINC000461336108   -0.4300
     11 C11        -0.7232    2.6266   48.0150 C.2     1  ZINC000461336108    0.3300
     12 N12        -1.9266    2.4977   47.5078 N.2     1  ZINC000461336108   -0.2500
     13 N13        -2.8087    2.6780   48.4249 N.2     1  ZINC000461336108   -0.2800
     14 C14        -2.2255    2.9307   49.5624 C.2     1  ZINC000461336108    0.2000
     15 C15        -2.9108    3.1985   50.8775 C.3     1  ZINC000461336108   -0.0300
     16 C16        -4.4273    3.1705   50.6774 C.3     1  ZINC000461336108   -0.0900
     17 C17        -4.9121    1.7240   50.4094 C.3     1  ZINC000461336108   -0.1200
     18 C18        -6.4004    1.7780   50.8351 C.3     1  ZINC000461336108   -0.1200
     19 C19        -6.4056    2.6920   52.0778 C.3     1  ZINC000461336108   -0.1300
     20 C20        -5.1511    3.5773   51.9776 C.3     1  ZINC000461336108   -0.1200
     21 N21        -0.8761    2.9019   49.3428 N.pl3   1  ZINC000461336108   -0.4900
     22 C22         0.1852    3.1281   50.3269 C.3     1  ZINC000461336108    0.1700
     23 C23         0.2139    4.5857   50.7087 C.2     1  ZINC000461336108   -0.2400
     24 C24         0.6000    5.0630   51.8929 C.2     1  ZINC000461336108   -0.0900
     25 C25         0.5422    6.4408   52.0135 C.2     1  ZINC000461336108   -0.1400
     26 C26         0.1091    7.0822   50.9271 C.2     1  ZINC000461336108   -0.2000
     27 S27        -0.2494    5.9181   49.6583 S.3     1  ZINC000461336108    0.1200
     28 H28         1.3421    5.0416   47.1705 H       1  ZINC000461336108    0.0800
     29 H29         0.4709    5.4588   45.6754 H       1  ZINC000461336108    0.0800
     30 H30        -0.4375    5.0192   47.1416 H       1  ZINC000461336108    0.0700
     31 H31         3.7348    2.6530   43.9532 H       1  ZINC000461336108    0.0900
     32 H32         4.5475    1.7500   45.2541 H       1  ZINC000461336108    0.0700
     33 H33         3.5413    0.8871   44.0661 H       1  ZINC000461336108    0.0600
     34 H34         2.3309   -0.0177   46.0581 H       1  ZINC000461336108    0.0900
     35 H35         2.8436    1.0915   47.3495 H       1  ZINC000461336108    0.0900
     36 H36         0.0562    0.8107   46.1496 H       1  ZINC000461336108    0.0500
     37 H37         0.5594    0.4558   47.8226 H       1  ZINC000461336108    0.1100
     38 H38        -2.6252    2.4327   51.5986 H       1  ZINC000461336108    0.0800
     39 H39        -2.6115    4.1781   51.2503 H       1  ZINC000461336108    0.1000
     40 H40        -4.7153    3.8294   49.8583 H       1  ZINC000461336108    0.0900
     41 H41        -4.8216    1.4760   49.3520 H       1  ZINC000461336108    0.0600
     42 H42        -4.3605    1.0118   51.0231 H       1  ZINC000461336108    0.0600
     43 H43        -7.0089    2.2106   50.0409 H       1  ZINC000461336108    0.0700
     44 H44        -6.7599    0.7817   51.0926 H       1  ZINC000461336108    0.0700
     45 H45        -7.3014    3.3128   52.0810 H       1  ZINC000461336108    0.0700
     46 H46        -6.3655    2.0889   52.9850 H       1  ZINC000461336108    0.0600
     47 H47        -4.5021    3.4039   52.8360 H       1  ZINC000461336108    0.0700
     48 H48        -5.4381    4.6279   51.9321 H       1  ZINC000461336108    0.0700
     49 H49        -0.0069    2.5239   51.2137 H       1  ZINC000461336108    0.1200
     50 H50         1.1461    2.8463   49.8964 H       1  ZINC000461336108    0.1000
     51 H51         0.9322    4.4229   52.6968 H       1  ZINC000461336108    0.1400
     52 H52         0.8258    6.9570   52.9186 H       1  ZINC000461336108    0.1500
     53 H53        -0.0010    8.1530   50.8389 H       1  ZINC000461336108    0.1700
@<TRIPOS>BOND
     1     1     2    1
     2     1    28    1
     3     1    29    1
     4     1    30    1
     5     2     3    1
     6     2    10    1
     7     2     4    1
     8     4     5    2
     9     4     6   am
    10     6     7    1
    11     6     8    1
    12     7    31    1
    13     7    32    1
    14     7    33    1
    15     8     9    1
    16     8    34    1
    17     8    35    1
    18     9    10    1
    19     9    36    1
    20     9    37    1
    21    10    11    1
    22    11    21    1
    23    11    12    2
    24    12    13    1
    25    13    14    2
    26    14    15    1
    27    14    21    1
    28    15    16    1
    29    15    38    1
    30    15    39    1
    31    16    20    1
    32    16    17    1
    33    16    40    1
    34    17    18    1
    35    17    41    1
    36    17    42    1
    37    18    19    1
    38    18    43    1
    39    18    44    1
    40    19    20    1
    41    19    45    1
    42    19    46    1
    43    20    47    1
    44    20    48    1
    45    21    22    1
    46    22    23    1
    47    22    49    1
    48    22    50    1
    49    23    27    1
    50    23    24    2
    51    24    25    1
    52    24    51    1
    53    25    26    2
    54    25    52    1
    55    26    27    1
    56    26    53    1
@<TRIPOS>SUBSTRUCTURE
     1 ZINC000461336108        1 TEMP              0 ****  ****    0 ROOT


##########                                Name:    ZINC001091652821
##########                DOCK_Rotatable_Bonds:                   4
##########                         Heavy_Atoms:                  24
##########                    Molecular_Weight:             345.465
##########                DOCK_Rotatable_Bonds:                   4
##########                       Formal_Charge:          -0.0199997
##########                     HBond_Acceptors:                   6
##########                        HBond_Donors:                   0
##########                         Heavy_Atoms:                  24
##########                          Grid_Score:          -26.804262
##########                     Grid_vdw_energy:          -26.905878
##########                      Grid_es_energy:            0.101615
##########           Internal_energy_repulsive:            6.274710

@<TRIPOS>MOLECULE
ZINC001091652821
 47 50 1 0 0
SMALL
USER_CHARGES


@<TRIPOS>ATOM
      1 C1        -19.0066   -1.4164   58.9008 C.3     1  ZINC001091652821   -0.1000
      2 C2        -17.8473   -2.3707   59.0290 C.2     1  ZINC001091652821   -0.1200
      3 C3        -17.4375   -2.8483   60.2099 C.2     1  ZINC001091652821   -0.2400
      4 S4        -16.1084   -3.9000   60.0149 S.3     1  ZINC001091652821    0.2100
      5 C5        -16.1229   -3.6730   58.2714 C.2     1  ZINC001091652821   -0.2700
      6 C6        -15.1991   -4.3036   57.3239 C.2     1  ZINC001091652821    0.6100
      7 O7        -15.1363   -5.5168   57.2512 O.2     1  ZINC001091652821   -0.5200
      8 N8        -14.4192   -3.5397   56.5334 N.am    1  ZINC001091652821   -0.6200
      9 C9        -14.3701   -2.0688   56.5031 C.3     1  ZINC001091652821    0.0900
     10 C10       -12.9281   -1.6902   56.1272 C.3     1  ZINC001091652821   -0.0900
     11 H11       -12.8925   -0.8365   55.4503 H       1  ZINC001091652821    0.1100
     12 C12       -12.1195   -1.4406   57.4174 C.3     1  ZINC001091652821    0.0400
     13 N13       -10.8217   -2.1254   57.1871 N.3     1  ZINC001091652821   -0.5000
     14 C14       -10.1421   -2.4069   58.4585 C.3     1  ZINC001091652821    0.1200
     15 C15        -9.4683   -1.1542   58.9561 C.2     1  ZINC001091652821    0.0000
     16 C16        -8.4115   -1.0975   59.7833 C.2     1  ZINC001091652821   -0.0800
     17 O17        -8.1270    0.2057   59.9745 O.3     1  ZINC001091652821   -0.2000
     18 C18        -9.0081    0.9244   59.2662 C.2     1  ZINC001091652821    0.1900
     19 C19        -9.0556    2.4288   59.1918 C.3     1  ZINC001091652821   -0.0600
     20 N20        -9.8132    0.1085   58.6475 N.2     1  ZINC001091652821   -0.4700
     21 C21       -11.1923   -3.3843   56.4915 C.3     1  ZINC001091652821    0.0400
     22 C22       -12.3235   -2.9676   55.4893 C.3     1  ZINC001091652821   -0.0700
     23 C23       -11.7840   -2.7422   54.0755 C.3     1  ZINC001091652821   -0.1300
     24 C24       -13.4456   -4.0136   55.5362 C.3     1  ZINC001091652821    0.1200
     25 C25       -17.1370   -2.8188   57.9405 C.2     1  ZINC001091652821   -0.0500
     26 H26       -19.9304   -1.9816   58.7768 H       1  ZINC001091652821    0.0700
     27 H27       -19.0736   -0.8034   59.7996 H       1  ZINC001091652821    0.0700
     28 H28       -18.8544   -0.7742   58.0334 H       1  ZINC001091652821    0.0700
     29 H29       -17.8879   -2.6006   61.1598 H       1  ZINC001091652821    0.1700
     30 H30       -15.0644   -1.6867   55.7546 H       1  ZINC001091652821    0.0800
     31 H31       -14.6188   -1.6660   57.4849 H       1  ZINC001091652821    0.0800
     32 H32       -11.9637   -0.3723   57.5674 H       1  ZINC001091652821    0.0800
     33 H33       -12.6309   -1.8751   58.2763 H       1  ZINC001091652821    0.0500
     34 H34       -10.8725   -2.7433   59.1943 H       1  ZINC001091652821    0.0500
     35 H35        -9.3946   -3.1855   58.3063 H       1  ZINC001091652821    0.1000
     36 H36        -7.8883   -1.9384   60.2142 H       1  ZINC001091652821    0.2100
     37 H37        -8.2589    2.8483   59.8063 H       1  ZINC001091652821    0.0900
     38 H38        -8.9218    2.7459   58.1576 H       1  ZINC001091652821    0.1000
     39 H39       -10.0202    2.7805   59.5579 H       1  ZINC001091652821    0.1000
     40 H40       -10.3377   -3.7812   55.9435 H       1  ZINC001091652821    0.0900
     41 H41       -11.5604   -4.1195   57.2070 H       1  ZINC001091652821    0.0500
     42 H42       -11.3438   -3.6671   53.7029 H       1  ZINC001091652821    0.0600
     43 H43       -12.5996   -2.4379   53.4196 H       1  ZINC001091652821    0.0600
     44 H44       -11.0241   -1.9610   54.0969 H       1  ZINC001091652821    0.0700
     45 H45       -13.0465   -4.9764   55.8555 H       1  ZINC001091652821    0.0900
     46 H46       -13.9105   -4.1077   54.5548 H       1  ZINC001091652821    0.0800
     47 H47       -17.3538   -2.5194   56.9258 H       1  ZINC001091652821    0.1500
@<TRIPOS>BOND
     1     1     2    1
     2     1    26    1
     3     1    27    1
     4     1    28    1
     5     2    25    1
     6     2     3    2
     7     3     4    1
     8     3    29    1
     9     4     5    1
    10     5     6    1
    11     5    25    2
    12     6     7    2
    13     6     8   am
    14     8    24    1
    15     8     9    1
    16     9    10    1
    17     9    30    1
    18     9    31    1
    19    10    11    1
    20    10    22    1
    21    10    12    1
    22    12    13    1
    23    12    32    1
    24    12    33    1
    25    13    14    1
    26    13    21    1
    27    14    15    1
    28    14    34    1
    29    14    35    1
    30    15    20    1
    31    15    16    2
    32    16    17    1
    33    16    36    1
    34    17    18    1
    35    18    19    1
    36    18    20    2
    37    19    37    1
    38    19    38    1
    39    19    39    1
    40    21    22    1
    41    21    40    1
    42    21    41    1
    43    22    23    1
    44    22    24    1
    45    23    42    1
    46    23    43    1
    47    23    44    1
    48    24    45    1
    49    24    46    1
    50    25    47    1
@<TRIPOS>SUBSTRUCTURE
     1 ZINC001091652821        1 TEMP              0 ****  ****    0 ROOT


##########                                Name:    ZINC000443933644
##########                DOCK_Rotatable_Bonds:                   8
##########                         Heavy_Atoms:                  27
##########                    Molecular_Weight:             402.438
##########                DOCK_Rotatable_Bonds:                   8
##########                       Formal_Charge:          0.00999922
##########                     HBond_Acceptors:                   9
##########                        HBond_Donors:                   2
##########                         Heavy_Atoms:                  27
##########                          Grid_Score:          -26.772217
##########                     Grid_vdw_energy:          -27.483595
##########                      Grid_es_energy:            0.711378
##########           Internal_energy_repulsive:           31.014189

@<TRIPOS>MOLECULE
ZINC000443933644
 48 49 1 0 0
SMALL
USER_CHARGES


@<TRIPOS>ATOM
      1 C1          4.0707   -0.4661   46.7348 C.3     1  ZINC000443933644   -0.1500
      2 C2          2.9848    0.5760   47.0103 C.3     1  ZINC000443933644   -0.1400
      3 C3          2.8391    0.7738   48.5204 C.3     1  ZINC000443933644   -0.1000
      4 H4          3.7618    1.1919   48.9228 H       1  ZINC000443933644    0.1000
      5 C5          2.5572   -0.5744   49.1864 C.3     1  ZINC000443933644   -0.1700
      6 C6          1.6803    1.7329   48.7997 C.3     1  ZINC000443933644    0.1200
      7 H7          0.7747    1.1601   48.9999 H       1  ZINC000443933644    0.1300
      8 N8          1.4662    2.5929   47.6331 N.am    1  ZINC000443933644   -1.1100
      9 S9          0.0092    2.5736   46.8463 S.o2    1  ZINC000443933644    2.6900
     10 O10         0.0647    3.6082   45.8736 O.2     1  ZINC000443933644   -0.9400
     11 O11        -0.2538    1.2154   46.5221 O.2     1  ZINC000443933644   -0.9400
     12 C12        -1.2204    3.0536   48.0135 C.ar    1  ZINC000443933644   -0.7000
     13 C13        -1.1686    4.3268   48.6057 C.ar    1  ZINC000443933644    0.0500
     14 C14        -0.1473    5.2381   48.2851 C.ar    1  ZINC000443933644   -0.1400
     15 C15        -0.1275    6.4633   48.8773 C.ar    1  ZINC000443933644   -0.0800
     16 C16        -1.1061    6.8303   49.7990 C.ar    1  ZINC000443933644   -0.1200
     17 C17        -2.1098    5.9732   50.1336 C.ar    1  ZINC000443933644   -0.0900
     18 C18        -2.1630    4.7009   49.5429 C.ar    1  ZINC000443933644   -0.0900
     19 C19        -3.1880    3.7863   49.8650 C.ar    1  ZINC000443933644    0.2300
     20 N20        -4.1780    4.1336   50.7862 N.am    1  ZINC000443933644   -0.6700
     21 C21        -4.2221    3.5271   51.9889 C.2     1  ZINC000443933644    0.5100
     22 C22        -5.2907    3.9020   52.9832 C.3     1  ZINC000443933644   -0.1700
     23 O23        -3.4017    2.6795   52.2710 O.2     1  ZINC000443933644   -0.5100
     24 C24        -3.2032    2.5471   49.2620 C.ar    1  ZINC000443933644   -0.1600
     25 C25        -2.2246    2.1933   48.3381 C.ar    1  ZINC000443933644    0.0400
     26 C26         2.0160    2.5979   50.0162 C.3     1  ZINC000443933644    0.4300
     27 F27         2.8840    3.6257   49.6324 F       1  ZINC000443933644   -0.1700
     28 F28         0.8398    3.1500   50.5348 F       1  ZINC000443933644   -0.1600
     29 F29         2.6313    1.8087   50.9939 F       1  ZINC000443933644   -0.1700
     30 H30         5.0182   -0.1217   47.1492 H       1  ZINC000443933644    0.0500
     31 H31         3.7929   -1.4119   47.2000 H       1  ZINC000443933644    0.0600
     32 H32         4.1744   -0.6071   45.6589 H       1  ZINC000443933644    0.0600
     33 H33         3.2625    1.5218   46.5451 H       1  ZINC000443933644    0.0700
     34 H34         2.0373    0.2317   46.5959 H       1  ZINC000443933644    0.0900
     35 H35         3.4311   -1.2184   49.0878 H       1  ZINC000443933644    0.0700
     36 H36         2.3378   -0.4191   50.2428 H       1  ZINC000443933644    0.0600
     37 H37         1.7017   -1.0465   48.7034 H       1  ZINC000443933644    0.0700
     38 H38         2.1779    3.1737   47.3216 H       1  ZINC000443933644    0.4300
     39 H39         0.6180    4.9671   47.5728 H       1  ZINC000443933644    0.1400
     40 H40         0.6584    7.1614   48.6294 H       1  ZINC000443933644    0.1300
     41 H41        -1.0677    7.8086   50.2547 H       1  ZINC000443933644    0.1300
     42 H42        -2.8611    6.2707   50.8501 H       1  ZINC000443933644    0.1300
     43 H43        -4.8341    4.8114   50.5603 H       1  ZINC000443933644    0.4200
     44 H44        -5.9303    4.6740   52.5553 H       1  ZINC000443933644    0.0800
     45 H45        -5.8906    3.0234   53.2203 H       1  ZINC000443933644    0.1000
     46 H46        -4.8241    4.2797   53.8929 H       1  ZINC000443933644    0.1000
     47 H47        -3.9861    1.8443   49.5061 H       1  ZINC000443933644    0.1500
     48 H48        -2.2566    1.2166   47.8782 H       1  ZINC000443933644    0.1500
@<TRIPOS>BOND
     1     1     2    1
     2     1    30    1
     3     1    31    1
     4     1    32    1
     5     2     3    1
     6     2    33    1
     7     2    34    1
     8     3     4    1
     9     3     5    1
    10     3     6    1
    11     5    35    1
    12     5    36    1
    13     5    37    1
    14     6     7    1
    15     6     8    1
    16     6    26    1
    17     8     9   am
    18     8    38    1
    19     9    10    2
    20     9    11    2
    21     9    12    1
    22    12    25   ar
    23    12    13   ar
    24    13    18   ar
    25    13    14   ar
    26    14    15   ar
    27    14    39    1
    28    15    16   ar
    29    15    40    1
    30    16    17   ar
    31    16    41    1
    32    17    18   ar
    33    17    42    1
    34    18    19   ar
    35    19    20    1
    36    19    24   ar
    37    20    21   am
    38    20    43    1
    39    21    22    1
    40    21    23    2
    41    22    44    1
    42    22    45    1
    43    22    46    1
    44    24    25   ar
    45    24    47    1
    46    25    48    1
    47    26    27    1
    48    26    28    1
    49    26    29    1
@<TRIPOS>SUBSTRUCTURE
     1 ZINC000443933644        1 TEMP              0 ****  ****    0 ROOT


##########                                Name:    ZINC000179743483
##########                DOCK_Rotatable_Bonds:                   5
##########                         Heavy_Atoms:                  23
##########                    Molecular_Weight:             393.347
##########                DOCK_Rotatable_Bonds:                   5
##########                       Formal_Charge:          -0.0199999
##########                     HBond_Acceptors:                   4
##########                        HBond_Donors:                   0
##########                         Heavy_Atoms:                  23
##########                          Grid_Score:          -26.752310
##########                     Grid_vdw_energy:          -25.971107
##########                      Grid_es_energy:           -0.781203
##########           Internal_energy_repulsive:           19.885420

@<TRIPOS>MOLECULE
ZINC000179743483
 44 46 1 0 0
SMALL
USER_CHARGES


@<TRIPOS>ATOM
      1 C1        -15.4163   -2.4089   62.5174 C.3     1  ZINC000179743483   -0.1400
      2 C2        -14.4178   -1.3768   61.9895 C.3     1  ZINC000179743483   -0.1000
      3 H3        -13.4345   -1.8377   61.8950 H       1  ZINC000179743483    0.1000
      4 C4        -14.8795   -0.8749   60.6198 C.3     1  ZINC000179743483   -0.0700
      5 C5        -14.5831   -1.9203   59.5756 C.ar    1  ZINC000179743483   -0.0600
      6 C6        -15.5484   -2.8495   59.2348 C.ar    1  ZINC000179743483   -0.1100
      7 C7        -15.2772   -3.8083   58.2768 C.ar    1  ZINC000179743483   -0.0900
      8 C8        -14.0399   -3.8381   57.6592 C.ar    1  ZINC000179743483   -0.0900
      9 Br9       -13.6685   -5.1491   56.3481 Br      1  ZINC000179743483   -0.0500
     10 C10       -13.0744   -2.9081   58.0006 C.ar    1  ZINC000179743483   -0.0900
     11 C11       -13.3483   -1.9465   58.9548 C.ar    1  ZINC000179743483   -0.1100
     12 C12       -14.3390   -0.2174   62.9489 C.2     1  ZINC000179743483    0.5200
     13 O13       -15.1874   -0.0796   63.8045 O.2     1  ZINC000179743483   -0.5300
     14 N14       -13.3257    0.6664   62.8563 N.am    1  ZINC000179743483   -0.6100
     15 C15       -13.2355    1.8017   63.7846 C.3     1  ZINC000179743483    0.1000
     16 C16       -11.8505    1.7946   64.4391 C.3     1  ZINC000179743483   -0.1400
     17 C17       -10.7758    1.7867   63.3496 C.3     1  ZINC000179743483   -0.1100
     18 C18       -10.9158    0.5204   62.5018 C.3     1  ZINC000179743483   -0.0200
     19 H19       -10.8201   -0.3576   63.1407 H       1  ZINC000179743483    0.0900
     20 C20        -9.8367    0.4972   61.4501 C.2     1  ZINC000179743483    0.0500
     21 N21        -9.1873   -0.5550   61.0815 N.2     1  ZINC000179743483   -0.4700
     22 C22        -8.2731   -0.3994   60.1450 C.2     1  ZINC000179743483    0.0400
     23 C23        -8.1444    0.8537   59.6990 C.2     1  ZINC000179743483   -0.2600
     24 S24        -9.3008    1.8601   60.5676 S.3     1  ZINC000179743483    0.1300
     25 C25       -12.2869    0.5095   61.8291 C.3     1  ZINC000179743483    0.1200
     26 H26       -16.3805   -1.9289   62.6850 H       1  ZINC000179743483    0.0700
     27 H27       -15.5311   -3.2100   61.7873 H       1  ZINC000179743483    0.0700
     28 H28       -15.0486   -2.8229   63.4563 H       1  ZINC000179743483    0.0600
     29 H29       -15.9518   -0.6815   60.6462 H       1  ZINC000179743483    0.0900
     30 H30       -14.3502    0.0455   60.3729 H       1  ZINC000179743483    0.0800
     31 H31       -16.5143   -2.8264   59.7173 H       1  ZINC000179743483    0.1300
     32 H32       -16.0312   -4.5344   58.0109 H       1  ZINC000179743483    0.1300
     33 H33       -12.1082   -2.9310   57.5187 H       1  ZINC000179743483    0.1300
     34 H34       -12.5946   -1.2203   59.2215 H       1  ZINC000179743483    0.1300
     35 H35       -13.3761    2.7335   63.2368 H       1  ZINC000179743483    0.0700
     36 H36       -14.0032    1.7075   64.5526 H       1  ZINC000179743483    0.0900
     37 H37       -11.7356    2.6852   65.0570 H       1  ZINC000179743483    0.0800
     38 H38       -11.7460    0.9046   65.0597 H       1  ZINC000179743483    0.0700
     39 H39       -10.8964    2.6641   62.7142 H       1  ZINC000179743483    0.0800
     40 H40        -9.7892    1.8065   63.8125 H       1  ZINC000179743483    0.0700
     41 H41        -7.6767   -1.2176   59.7692 H       1  ZINC000179743483    0.1800
     42 H42        -7.4557    1.1895   58.9378 H       1  ZINC000179743483    0.1800
     43 H43       -12.4294   -0.4356   61.3049 H       1  ZINC000179743483    0.0900
     44 H44       -12.3534    1.3359   61.1214 H       1  ZINC000179743483    0.0800
@<TRIPOS>BOND
     1     1     2    1
     2     1    26    1
     3     1    27    1
     4     1    28    1
     5     2     3    1
     6     2     4    1
     7     2    12    1
     8     4     5    1
     9     4    29    1
    10     4    30    1
    11     5    11   ar
    12     5     6   ar
    13     6     7   ar
    14     6    31    1
    15     7     8   ar
    16     7    32    1
    17     8     9    1
    18     8    10   ar
    19    10    11   ar
    20    10    33    1
    21    11    34    1
    22    12    13    2
    23    12    14   am
    24    14    25    1
    25    14    15    1
    26    15    16    1
    27    15    35    1
    28    15    36    1
    29    16    17    1
    30    16    37    1
    31    16    38    1
    32    17    18    1
    33    17    39    1
    34    17    40    1
    35    18    19    1
    36    18    20    1
    37    18    25    1
    38    20    24    1
    39    20    21    2
    40    21    22    1
    41    22    23    2
    42    22    41    1
    43    23    24    1
    44    23    42    1
    45    25    43    1
    46    25    44    1
@<TRIPOS>SUBSTRUCTURE
     1 ZINC000179743483        1 TEMP              0 ****  ****    0 ROOT


##########                                Name:    ZINC001342629575
##########                DOCK_Rotatable_Bonds:                   9
##########                         Heavy_Atoms:                  29
##########                    Molecular_Weight:             396.533
##########                DOCK_Rotatable_Bonds:                   9
##########                       Formal_Charge:         -0.00999976
##########                     HBond_Acceptors:                   6
##########                        HBond_Donors:                   0
##########                         Heavy_Atoms:                  29
##########                          Grid_Score:          -26.746202
##########                     Grid_vdw_energy:          -26.104963
##########                      Grid_es_energy:           -0.641238
##########           Internal_energy_repulsive:           20.078341

@<TRIPOS>MOLECULE
ZINC001342629575
 61 64 1 0 0
SMALL
USER_CHARGES


@<TRIPOS>ATOM
      1 C1         -9.0417    0.4517   52.7849 C.2     1  ZINC001342629575   -0.1800
      2 C2         -8.0378    1.2325   53.0986 C.2     1  ZINC001342629575   -0.1600
      3 C3         -6.9348    1.4790   52.1019 C.3     1  ZINC001342629575   -0.0800
      4 C4         -6.1808    2.7553   52.4809 C.3     1  ZINC001342629575    0.0500
      5 H5         -5.7692    2.6496   53.4846 H       1  ZINC001342629575    0.0900
      6 C6         -5.0603    2.9868   51.5002 C.2     1  ZINC001342629575    0.2000
      7 N7         -4.9770    2.5010   50.2941 N.2     1  ZINC001342629575   -0.2700
      8 N8         -3.8909    2.8981   49.7330 N.2     1  ZINC001342629575   -0.3000
      9 C9         -3.2176    3.6649   50.5579 C.2     1  ZINC001342629575    0.3400
     10 N10        -2.0002    4.2771   50.3055 N.3     1  ZINC001342629575   -0.4300
     11 C11        -2.1584    5.7499   50.1922 C.3     1  ZINC001342629575    0.0400
     12 C12        -0.9142    6.2154   49.4058 C.3     1  ZINC001342629575   -0.1200
     13 C13        -0.4552    4.9755   48.6110 C.3     1  ZINC001342629575   -0.1200
     14 C14        -1.4609    3.8652   48.9839 C.3     1  ZINC001342629575    0.0700
     15 H15        -2.2615    3.8138   48.2460 H       1  ZINC001342629575    0.0900
     16 C16        -0.7492    2.5152   49.0926 C.3     1  ZINC001342629575    0.1000
     17 H17        -1.4850    1.7135   49.1571 H       1  ZINC001342629575    0.0700
     18 C18         0.1544    2.4987   50.3441 C.3     1  ZINC001342629575   -0.1400
     19 C19         1.4085    1.7371   49.8353 C.3     1  ZINC001342629575   -0.1600
     20 C20         1.4630    2.2119   48.3613 C.3     1  ZINC001342629575    0.0500
     21 O21         0.0890    2.3143   47.9486 O.3     1  ZINC001342629575   -0.3700
     22 N22        -3.9453    3.7503   51.7090 N.pl3   1  ZINC001342629575   -0.4600
     23 C23        -3.5991    4.4970   52.9209 C.3     1  ZINC001342629575    0.1100
     24 C24        -2.4626    3.7812   53.6538 C.3     1  ZINC001342629575    0.0500
     25 O25        -2.3179    4.3339   54.9636 O.3     1  ZINC001342629575   -0.3800
     26 C26        -1.2781    3.7315   55.7369 C.3     1  ZINC001342629575    0.0300
     27 C27        -7.1279    3.9270   52.4471 C.ar    1  ZINC001342629575   -0.0900
     28 C28        -7.4132    4.6188   53.6095 C.ar    1  ZINC001342629575   -0.0900
     29 C29        -8.2818    5.6937   53.5786 C.ar    1  ZINC001342629575   -0.1200
     30 C30        -8.8650    6.0770   52.3853 C.ar    1  ZINC001342629575   -0.1200
     31 C31        -8.5791    5.3857   51.2228 C.ar    1  ZINC001342629575   -0.1200
     32 C32        -7.7070    4.3136   51.2530 C.ar    1  ZINC001342629575   -0.1100
     33 H33        -9.8322    0.2749   53.4992 H       1  ZINC001342629575    0.1000
     34 H34        -9.0813   -0.0119   51.8102 H       1  ZINC001342629575    0.1000
     35 H35        -8.0006    1.6995   54.0717 H       1  ZINC001342629575    0.1000
     36 H36        -6.2453    0.6348   52.1067 H       1  ZINC001342629575    0.0900
     37 H37        -7.3635    1.5923   51.1062 H       1  ZINC001342629575    0.0800
     38 H38        -3.0680    5.9934   49.6433 H       1  ZINC001342629575    0.0600
     39 H39        -2.1762    6.2075   51.1813 H       1  ZINC001342629575    0.0800
     40 H40        -1.1773    7.0252   48.7253 H       1  ZINC001342629575    0.0800
     41 H41        -0.1306    6.5363   50.0922 H       1  ZINC001342629575    0.0800
     42 H42        -0.4933    5.1767   47.5404 H       1  ZINC001342629575    0.0800
     43 H43         0.5535    4.6879   48.9073 H       1  ZINC001342629575    0.0800
     44 H44         0.4134    3.5126   50.6490 H       1  ZINC001342629575    0.0900
     45 H45        -0.3235    1.9571   51.1606 H       1  ZINC001342629575    0.0800
     46 H46         2.3019    2.0430   50.3798 H       1  ZINC001342629575    0.0800
     47 H47         1.2643    0.6582   49.8953 H       1  ZINC001342629575    0.0800
     48 H48         1.9522    3.1837   48.2947 H       1  ZINC001342629575    0.0600
     49 H49         1.9881    1.4803   47.7472 H       1  ZINC001342629575    0.0900
     50 H50        -3.2793    5.5030   52.6490 H       1  ZINC001342629575    0.1000
     51 H51        -4.4709    4.5566   53.5725 H       1  ZINC001342629575    0.1100
     52 H52        -2.6927    2.7186   53.7312 H       1  ZINC001342629575    0.0600
     53 H53        -1.5333    3.9124   53.0994 H       1  ZINC001342629575    0.0600
     54 H54        -1.2326    4.2063   56.7171 H       1  ZINC001342629575    0.0900
     55 H55        -1.4844    2.6681   55.8575 H       1  ZINC001342629575    0.0400
     56 H56        -0.3239    3.8609   55.2261 H       1  ZINC001342629575    0.0400
     57 H57        -6.9576    4.3194   54.5417 H       1  ZINC001342629575    0.1300
     58 H58        -8.5051    6.2337   54.4867 H       1  ZINC001342629575    0.1200
     59 H59        -9.5442    6.9162   52.3612 H       1  ZINC001342629575    0.1200
     60 H60        -9.0349    5.6850   50.2906 H       1  ZINC001342629575    0.1200
     61 H61        -7.4836    3.7735   50.3448 H       1  ZINC001342629575    0.1200
@<TRIPOS>BOND
     1     1     2    2
     2     1    33    1
     3     1    34    1
     4     2     3    1
     5     2    35    1
     6     3     4    1
     7     3    36    1
     8     3    37    1
     9     4     5    1
    10     4     6    1
    11     4    27    1
    12     6    22    1
    13     6     7    2
    14     7     8    1
    15     8     9    2
    16     9    10    1
    17     9    22    1
    18    10    14    1
    19    10    11    1
    20    11    12    1
    21    11    38    1
    22    11    39    1
    23    12    13    1
    24    12    40    1
    25    12    41    1
    26    13    14    1
    27    13    42    1
    28    13    43    1
    29    14    15    1
    30    14    16    1
    31    16    17    1
    32    16    21    1
    33    16    18    1
    34    18    19    1
    35    18    44    1
    36    18    45    1
    37    19    20    1
    38    19    46    1
    39    19    47    1
    40    20    21    1
    41    20    48    1
    42    20    49    1
    43    22    23    1
    44    23    24    1
    45    23    50    1
    46    23    51    1
    47    24    25    1
    48    24    52    1
    49    24    53    1
    50    25    26    1
    51    26    54    1
    52    26    55    1
    53    26    56    1
    54    27    32   ar
    55    27    28   ar
    56    28    29   ar
    57    28    57    1
    58    29    30   ar
    59    29    58    1
    60    30    31   ar
    61    30    59    1
    62    31    32   ar
    63    31    60    1
    64    32    61    1
@<TRIPOS>SUBSTRUCTURE
     1 ZINC001342629575        1 TEMP              0 ****  ****    0 ROOT


##########                                Name:    ZINC001085817863
##########                DOCK_Rotatable_Bonds:                   7
##########                         Heavy_Atoms:                  24
##########                    Molecular_Weight:             326.442
##########                DOCK_Rotatable_Bonds:                   7
##########                       Formal_Charge:           0.0299998
##########                     HBond_Acceptors:                   5
##########                        HBond_Donors:                   0
##########                         Heavy_Atoms:                  24
##########                          Grid_Score:          -26.713673
##########                     Grid_vdw_energy:          -26.363308
##########                      Grid_es_energy:           -0.350365
##########           Internal_energy_repulsive:           11.530186

@<TRIPOS>MOLECULE
ZINC001085817863
 50 52 1 0 0
SMALL
USER_CHARGES


@<TRIPOS>ATOM
      1 C1         -1.5402    5.4926   50.9917 C.3     1  ZINC001085817863   -0.1400
      2 C2         -1.6734    4.0732   51.5471 C.3     1  ZINC001085817863   -0.0700
      3 C3         -2.2913    3.1807   50.5017 C.2     1  ZINC001085817863    0.1100
      4 C4         -1.6204    2.5498   49.4905 C.2     1  ZINC001085817863   -0.2400
      5 C5         -0.1749    2.6088   49.2156 C.2     1  ZINC001085817863    0.6000
      6 O6          0.6043    2.0008   49.9243 O.2     1  ZINC001085817863   -0.5300
      7 N7          0.2846    3.3367   48.1784 N.am    1  ZINC001085817863   -0.6100
      8 C8         -0.6539    4.0690   47.3246 C.3     1  ZINC001085817863    0.0800
      9 C9          1.7226    3.3954   47.9049 C.3     1  ZINC001085817863    0.1300
     10 C10         2.0185    2.6932   46.5781 C.3     1  ZINC001085817863    0.0100
     11 H11         1.1225    2.2914   46.1049 H       1  ZINC001085817863    0.0800
     12 C12         2.8918    3.5244   45.6277 C.3     1  ZINC001085817863   -0.1400
     13 C13         3.5436    2.1692   45.3189 C.3     1  ZINC001085817863    0.0000
     14 N14         3.1249    1.7215   46.6616 N.3     1  ZINC001085817863   -0.4400
     15 C15         2.6204    0.3424   46.6232 C.3     1  ZINC001085817863    0.0700
     16 C16         2.9511   -0.3498   47.9202 C.ar    1  ZINC001085817863   -0.1300
     17 C17         2.0524   -1.2377   48.4912 C.ar    1  ZINC001085817863   -0.0700
     18 C18         2.3995   -1.8517   49.6850 C.ar    1  ZINC001085817863   -0.1700
     19 C19         3.6208   -1.5605   50.2620 C.ar    1  ZINC001085817863    0.1000
     20 N20         4.4513   -0.7101   49.6905 N.ar    1  ZINC001085817863   -0.4800
     21 C21         4.1569   -0.1119   48.5528 C.ar    1  ZINC001085817863    0.1200
     22 C22        -2.6316    1.8019   48.7357 C.2     1  ZINC001085817863   -0.1900
     23 C23        -3.8083    2.0385   49.3424 C.2     1  ZINC001085817863   -0.0200
     24 N24        -3.5968    2.8642   50.4079 N.pl3   1  ZINC001085817863   -0.4400
     25 C25        -4.6421    3.3460   51.3142 C.3     1  ZINC001085817863    0.0600
     26 H26        -1.0934    6.1383   51.7478 H       1  ZINC001085817863    0.0600
     27 H27        -0.9058    5.4780   50.1055 H       1  ZINC001085817863    0.0500
     28 H28        -2.5266    5.8730   50.7261 H       1  ZINC001085817863    0.0600
     29 H29        -0.6871    3.6929   51.8126 H       1  ZINC001085817863    0.0600
     30 H30        -2.3079    4.0879   52.4333 H       1  ZINC001085817863    0.1100
     31 H31        -1.2252    4.7713   47.9316 H       1  ZINC001085817863    0.0700
     32 H32        -0.1002    4.6153   46.5611 H       1  ZINC001085817863    0.0700
     33 H33        -1.3348    3.3652   46.8459 H       1  ZINC001085817863    0.0600
     34 H34         2.0385    4.4368   47.8432 H       1  ZINC001085817863    0.0800
     35 H35         2.2660    2.8979   48.7083 H       1  ZINC001085817863    0.1000
     36 H36         2.3488    3.9599   44.7889 H       1  ZINC001085817863    0.0800
     37 H37         3.5504    4.2321   46.1310 H       1  ZINC001085817863    0.1000
     38 H38         3.0551    1.6267   44.5095 H       1  ZINC001085817863    0.0700
     39 H39         4.6253    2.2254   45.1970 H       1  ZINC001085817863    0.0800
     40 H40         1.5395    0.3547   46.4832 H       1  ZINC001085817863    0.0900
     41 H41         3.0878   -0.1925   45.7964 H       1  ZINC001085817863    0.0500
     42 H42         1.1045   -1.4458   48.0175 H       1  ZINC001085817863    0.1300
     43 H43         1.7235   -2.5487   50.1582 H       1  ZINC001085817863    0.1300
     44 H44         3.8984   -2.0342   51.1920 H       1  ZINC001085817863    0.1600
     45 H45         4.8624    0.5786   48.1148 H       1  ZINC001085817863    0.1500
     46 H46        -2.4645    1.1842   47.8656 H       1  ZINC001085817863    0.1600
     47 H47        -4.7638    1.6373   49.0385 H       1  ZINC001085817863    0.1600
     48 H48        -4.7544    2.6473   52.1433 H       1  ZINC001085817863    0.0800
     49 H49        -4.3644    4.3266   51.7006 H       1  ZINC001085817863    0.0900
     50 H50        -5.5852    3.4223   50.7731 H       1  ZINC001085817863    0.0900
@<TRIPOS>BOND
     1     1     2    1
     2     1    26    1
     3     1    27    1
     4     1    28    1
     5     2     3    1
     6     2    29    1
     7     2    30    1
     8     3    24    1
     9     3     4    2
    10     4     5    1
    11     4    22    1
    12     5     6    2
    13     5     7   am
    14     7     8    1
    15     7     9    1
    16     8    31    1
    17     8    32    1
    18     8    33    1
    19     9    10    1
    20     9    34    1
    21     9    35    1
    22    10    11    1
    23    10    14    1
    24    10    12    1
    25    12    13    1
    26    12    36    1
    27    12    37    1
    28    13    14    1
    29    13    38    1
    30    13    39    1
    31    14    15    1
    32    15    16    1
    33    15    40    1
    34    15    41    1
    35    16    21   ar
    36    16    17   ar
    37    17    18   ar
    38    17    42    1
    39    18    19   ar
    40    18    43    1
    41    19    20   ar
    42    19    44    1
    43    20    21   ar
    44    21    45    1
    45    22    23    2
    46    22    46    1
    47    23    24    1
    48    23    47    1
    49    24    25    1
    50    25    48    1
    51    25    49    1
    52    25    50    1
@<TRIPOS>SUBSTRUCTURE
     1 ZINC001085817863        1 TEMP              0 ****  ****    0 ROOT


##########                                Name:    ZINC001011676549
##########                DOCK_Rotatable_Bonds:                   6
##########                         Heavy_Atoms:                  24
##########                    Molecular_Weight:             330.387
##########                DOCK_Rotatable_Bonds:                   6
##########                       Formal_Charge:        -1.49012e-07
##########                     HBond_Acceptors:                   7
##########                        HBond_Donors:                   1
##########                         Heavy_Atoms:                  24
##########                          Grid_Score:          -26.695934
##########                     Grid_vdw_energy:          -26.511419
##########                      Grid_es_energy:           -0.184515
##########           Internal_energy_repulsive:           16.882170

@<TRIPOS>MOLECULE
ZINC001011676549
 46 48 1 0 0
SMALL
USER_CHARGES


@<TRIPOS>ATOM
      1 C1         -2.4647    2.1778   48.2372 C.3     1  ZINC001011676549   -0.1700
      2 C2         -1.3781    3.2433   48.0791 C.3     1  ZINC001011676549    0.1300
      3 H3         -1.5159    3.7763   47.1383 H       1  ZINC001011676549    0.0900
      4 C4         -1.4410    4.2361   49.2588 C.3     1  ZINC001011676549    0.1400
      5 H5         -1.1962    5.2451   48.9272 H       1  ZINC001011676549    0.1100
      6 N6         -2.7622    4.2066   49.8912 N.am    1  ZINC001011676549   -0.7200
      7 C7         -3.0541    5.0718   50.8826 C.2     1  ZINC001011676549    0.5200
      8 O8         -2.2227    5.8736   51.2521 O.2     1  ZINC001011676549   -0.5300
      9 C9         -4.4138    5.0426   51.5319 C.3     1  ZINC001011676549   -0.0900
     10 C10        -5.0660    3.7091   51.2721 C.ar    1  ZINC001011676549   -0.1800
     11 C11        -4.3725    2.5273   51.4807 C.ar    1  ZINC001011676549    0.1600
     12 N12        -4.9779    1.3751   51.2417 N.ar    1  ZINC001011676549   -0.5200
     13 C13        -6.2230    1.3431   50.8110 C.ar    1  ZINC001011676549    0.3000
     14 N14        -6.9130    2.4461   50.6015 N.ar    1  ZINC001011676549   -0.5200
     15 C15        -6.3754    3.6347   50.8242 C.ar    1  ZINC001011676549    0.1600
     16 C16        -0.3534    3.6968   50.2252 C.3     1  ZINC001011676549   -0.1400
     17 C17         0.7178    3.1821   49.2317 C.3     1  ZINC001011676549    0.1000
     18 N18        -0.0508    2.6117   48.1062 N.am    1  ZINC001011676549   -0.6100
     19 C19         0.3914    1.6682   47.2513 C.2     1  ZINC001011676549    0.5800
     20 O20        -0.3312    1.2709   46.3573 O.2     1  ZINC001011676549   -0.5300
     21 C21         1.7480    1.1190   47.3994 C.2     1  ZINC001011676549   -0.1400
     22 C22         2.7445    1.6979   46.7541 C.2     1  ZINC001011676549   -0.1500
     23 C23         4.1602    1.2014   46.8388 C.3     1  ZINC001011676549    0.0900
     24 O24         4.3025    0.3106   47.9470 O.3     1  ZINC001011676549   -0.3800
     25 C25         3.3091   -0.7215   47.9697 C.3     1  ZINC001011676549    0.0600
     26 C26         1.9539   -0.0789   48.2854 C.3     1  ZINC001011676549   -0.1100
     27 H27        -2.3135    1.6408   49.1736 H       1  ZINC001011676549    0.0600
     28 H28        -3.4440    2.6562   48.2468 H       1  ZINC001011676549    0.0700
     29 H29        -2.4107    1.4774   47.4038 H       1  ZINC001011676549    0.0800
     30 H30        -3.4267    3.5645   49.5965 H       1  ZINC001011676549    0.4100
     31 H31        -4.3065    5.1913   52.6064 H       1  ZINC001011676549    0.1100
     32 H32        -5.0326    5.8371   51.1151 H       1  ZINC001011676549    0.1100
     33 H33        -3.3518    2.5466   51.8332 H       1  ZINC001011676549    0.1700
     34 H34        -6.6902    0.3874   50.6245 H       1  ZINC001011676549    0.2000
     35 H35        -6.9466    4.5349   50.6509 H       1  ZINC001011676549    0.1700
     36 H36         0.0452    4.4961   50.8499 H       1  ZINC001011676549    0.0900
     37 H37        -0.7428    2.8826   50.8363 H       1  ZINC001011676549    0.0800
     38 H38         1.3407    4.0065   48.8845 H       1  ZINC001011676549    0.0800
     39 H39         1.3317    2.4130   49.7005 H       1  ZINC001011676549    0.0800
     40 H40         2.5334    2.5619   46.1413 H       1  ZINC001011676549    0.1200
     41 H41         4.4149    0.6765   45.9181 H       1  ZINC001011676549    0.0700
     42 H42         4.8335    2.0490   46.9676 H       1  ZINC001011676549    0.1100
     43 H43         3.2684   -1.2122   46.9972 H       1  ZINC001011676549    0.0600
     44 H44         3.5562   -1.4508   48.7412 H       1  ZINC001011676549    0.1000
     45 H45         1.9322    0.2274   49.3312 H       1  ZINC001011676549    0.0900
     46 H46         1.1583   -0.8012   48.1025 H       1  ZINC001011676549    0.0900
@<TRIPOS>BOND
     1     1     2    1
     2     1    27    1
     3     1    28    1
     4     1    29    1
     5     2     3    1
     6     2    18    1
     7     2     4    1
     8     4     5    1
     9     4     6    1
    10     4    16    1
    11     6     7   am
    12     6    30    1
    13     7     8    2
    14     7     9    1
    15     9    10    1
    16     9    31    1
    17     9    32    1
    18    10    15   ar
    19    10    11   ar
    20    11    12   ar
    21    11    33    1
    22    12    13   ar
    23    13    14   ar
    24    13    34    1
    25    14    15   ar
    26    15    35    1
    27    16    17    1
    28    16    36    1
    29    16    37    1
    30    17    18    1
    31    17    38    1
    32    17    39    1
    33    18    19   am
    34    19    20    2
    35    19    21    1
    36    21    26    1
    37    21    22    2
    38    22    23    1
    39    22    40    1
    40    23    24    1
    41    23    41    1
    42    23    42    1
    43    24    25    1
    44    25    26    1
    45    25    43    1
    46    25    44    1
    47    26    45    1
    48    26    46    1
@<TRIPOS>SUBSTRUCTURE
     1 ZINC001011676549        1 TEMP              0 ****  ****    0 ROOT


##########                                Name:    ZINC000186316242
##########                DOCK_Rotatable_Bonds:                   7
##########                         Heavy_Atoms:                  28
##########                    Molecular_Weight:             392.525
##########                DOCK_Rotatable_Bonds:                   7
##########                       Formal_Charge:         -0.00999981
##########                     HBond_Acceptors:                   6
##########                        HBond_Donors:                   0
##########                         Heavy_Atoms:                  28
##########                          Grid_Score:          -26.693741
##########                     Grid_vdw_energy:          -26.681309
##########                      Grid_es_energy:           -0.012433
##########           Internal_energy_repulsive:           26.224520

@<TRIPOS>MOLECULE
ZINC000186316242
 52 55 1 0 0
SMALL
USER_CHARGES


@<TRIPOS>ATOM
      1 C1         -3.2535    5.9642   57.3702 C.3     1  ZINC000186316242   -0.1500
      2 C2         -1.9086    5.5433   56.7742 C.3     1  ZINC000186316242    0.1000
      3 N3         -2.1278    4.9170   55.4681 N.am    1  ZINC000186316242   -0.5900
      4 C4         -1.6268    3.6915   55.2158 C.2     1  ZINC000186316242    0.5900
      5 O5         -1.8087    3.1715   54.1314 O.2     1  ZINC000186316242   -0.5000
      6 C6         -0.8588    2.9815   56.2536 C.2     1  ZINC000186316242    0.0100
      7 C7         -1.4304    2.5184   57.4011 C.2     1  ZINC000186316242   -0.2100
      8 S8         -0.2308    1.7557   58.3518 S.3     1  ZINC000186316242    0.2000
      9 C9          0.9877    2.1095   57.1326 C.2     1  ZINC000186316242    0.0700
     10 C10         2.4170    1.7395   57.2223 C.ar    1  ZINC000186316242    0.1900
     11 C11         2.8839    1.0485   58.3400 C.ar    1  ZINC000186316242   -0.1500
     12 C12         4.2241    0.7090   58.4091 C.ar    1  ZINC000186316242   -0.0700
     13 C13         5.0543    1.0712   57.3581 C.ar    1  ZINC000186316242   -0.1600
     14 C14         4.5244    1.7562   56.2792 C.ar    1  ZINC000186316242    0.1100
     15 N15         3.2446    2.0631   56.2352 N.ar    1  ZINC000186316242   -0.4500
     16 N16         0.4386    2.7399   56.1401 N.2     1  ZINC000186316242   -0.3900
     17 C17        -2.8914    5.6228   54.4361 C.3     1  ZINC000186316242    0.1400
     18 H18        -3.1352    6.6313   54.7702 H       1  ZINC000186316242    0.1000
     19 C19        -4.1825    4.8433   54.0966 C.3     1  ZINC000186316242   -0.1300
     20 C20        -4.2925    5.0076   52.5599 C.3     1  ZINC000186316242    0.0400
     21 N21        -2.8796    4.9332   52.1081 N.3     1  ZINC000186316242   -0.4900
     22 C22        -2.7202    5.5334   50.7769 C.3     1  ZINC000186316242    0.0800
     23 C23        -2.1999    4.4949   49.8167 C.ar    1  ZINC000186316242   -0.0700
     24 C24        -1.0474    4.7381   49.0933 C.ar    1  ZINC000186316242   -0.1000
     25 C25        -0.5703    3.7855   48.2125 C.ar    1  ZINC000186316242   -0.1200
     26 C26        -1.2454    2.5895   48.0555 C.ar    1  ZINC000186316242   -0.1200
     27 C27        -2.3974    2.3459   48.7796 C.ar    1  ZINC000186316242   -0.1200
     28 C28        -2.8723    3.2967   49.6636 C.ar    1  ZINC000186316242   -0.1100
     29 C29        -2.0921    5.6739   53.1208 C.3     1  ZINC000186316242    0.0400
     30 H30        -3.0904    6.4302   58.3419 H       1  ZINC000186316242    0.0700
     31 H31        -3.7398    6.6757   56.7029 H       1  ZINC000186316242    0.0500
     32 H32        -3.8883    5.0863   57.4901 H       1  ZINC000186316242    0.0400
     33 H33        -1.2738    6.4211   56.6541 H       1  ZINC000186316242    0.1200
     34 H34        -1.4222    4.8316   57.4413 H       1  ZINC000186316242    0.0700
     35 H35        -2.4726    2.6171   57.6669 H       1  ZINC000186316242    0.1900
     36 H36         2.2095    0.7825   59.1405 H       1  ZINC000186316242    0.1400
     37 H37         4.6148    0.1742   59.2621 H       1  ZINC000186316242    0.1400
     38 H38         6.1047    0.8212   57.3823 H       1  ZINC000186316242    0.1400
     39 H39         5.1684    2.0398   55.4599 H       1  ZINC000186316242    0.1600
     40 H40        -4.0804    3.7919   54.3658 H       1  ZINC000186316242    0.0900
     41 H41        -5.0440    5.2881   54.5948 H       1  ZINC000186316242    0.0700
     42 H42        -4.8780    4.1964   52.1272 H       1  ZINC000186316242    0.0800
     43 H43        -4.7270    5.9746   52.3065 H       1  ZINC000186316242    0.0400
     44 H44        -3.6844    5.9017   50.4265 H       1  ZINC000186316242    0.0400
     45 H45        -2.0139    6.3617   50.8339 H       1  ZINC000186316242    0.0800
     46 H46        -0.5200    5.6726   49.2159 H       1  ZINC000186316242    0.1200
     47 H47         0.3298    3.9759   47.6468 H       1  ZINC000186316242    0.1200
     48 H48        -0.8730    1.8455   47.3668 H       1  ZINC000186316242    0.1200
     49 H49        -2.9250    1.4116   48.6568 H       1  ZINC000186316242    0.1200
     50 H50        -3.7723    3.1064   50.2294 H       1  ZINC000186316242    0.1200
     51 H51        -1.9598    6.7085   52.8042 H       1  ZINC000186316242    0.0500
     52 H52        -1.1214    5.1976   53.2577 H       1  ZINC000186316242    0.0800
@<TRIPOS>BOND
     1     1     2    1
     2     1    30    1
     3     1    31    1
     4     1    32    1
     5     2     3    1
     6     2    33    1
     7     2    34    1
     8     3     4   am
     9     3    17    1
    10     4     5    2
    11     4     6    1
    12     6    16    1
    13     6     7    2
    14     7     8    1
    15     7    35    1
    16     8     9    1
    17     9    10    1
    18     9    16    2
    19    10    15   ar
    20    10    11   ar
    21    11    12   ar
    22    11    36    1
    23    12    13   ar
    24    12    37    1
    25    13    14   ar
    26    13    38    1
    27    14    15   ar
    28    14    39    1
    29    17    18    1
    30    17    29    1
    31    17    19    1
    32    19    20    1
    33    19    40    1
    34    19    41    1
    35    20    21    1
    36    20    42    1
    37    20    43    1
    38    21    22    1
    39    21    29    1
    40    22    23    1
    41    22    44    1
    42    22    45    1
    43    23    28   ar
    44    23    24   ar
    45    24    25   ar
    46    24    46    1
    47    25    26   ar
    48    25    47    1
    49    26    27   ar
    50    26    48    1
    51    27    28   ar
    52    27    49    1
    53    28    50    1
    54    29    51    1
    55    29    52    1
@<TRIPOS>SUBSTRUCTURE
     1 ZINC000186316242        1 TEMP              0 ****  ****    0 ROOT


##########                                Name:    ZINC001060620810
##########                DOCK_Rotatable_Bonds:                   5
##########                         Heavy_Atoms:                  24
##########                    Molecular_Weight:             332.421
##########                DOCK_Rotatable_Bonds:                   5
##########                       Formal_Charge:           0.0299998
##########                     HBond_Acceptors:                   6
##########                        HBond_Donors:                   2
##########                         Heavy_Atoms:                  24
##########                          Grid_Score:          -26.627007
##########                     Grid_vdw_energy:          -23.801767
##########                      Grid_es_energy:           -2.825238
##########           Internal_energy_repulsive:           10.718616

@<TRIPOS>MOLECULE
ZINC001060620810
 49 52 1 0 0
SMALL
USER_CHARGES


@<TRIPOS>ATOM
      1 O1         -3.5679    1.8406   48.6099 O.2     1  ZINC001060620810   -0.5400
      2 C2         -3.0787    2.6727   49.3443 C.2     1  ZINC001060620810    0.5500
      3 N3         -3.8169    3.2178   50.3314 N.am    1  ZINC001060620810   -0.7200
      4 C4         -5.2098    2.8040   50.5184 C.3     1  ZINC001060620810    0.1400
      5 C5         -5.2486    1.4573   51.2436 C.3     1  ZINC001060620810   -0.1300
      6 C6         -6.7032    1.0251   51.4390 C.3     1  ZINC001060620810   -0.1300
      7 C7         -7.4397    2.0751   52.2733 C.3     1  ZINC001060620810    0.1600
      8 N8         -6.7892    2.2049   53.5795 N.pl3   1  ZINC001060620810   -0.6900
      9 C9         -7.4341    2.8664   54.6119 C.ar    1  ZINC001060620810    0.5600
     10 N10        -6.7292    3.2787   55.6548 N.ar    1  ZINC001060620810   -0.5400
     11 C11        -7.3122    3.9177   56.6558 C.ar    1  ZINC001060620810    0.1700
     12 C12        -8.6805    4.1445   56.6079 C.ar    1  ZINC001060620810   -0.0700
     13 F13        -9.3094    4.7896   57.6147 F       1  ZINC001060620810   -0.1300
     14 C14        -9.3884    3.6942   55.5024 C.ar    1  ZINC001060620810    0.1800
     15 N15        -8.7411    3.0663   54.5343 N.ar    1  ZINC001060620810   -0.5500
     16 C16        -7.4008    3.4218   51.5482 C.3     1  ZINC001060620810   -0.1200
     17 C17        -5.9461    3.8539   51.3528 C.3     1  ZINC001060620810   -0.1300
     18 C18        -1.6454    3.0971   49.1531 C.3     1  ZINC001060620810   -0.1500
     19 C19        -0.7491    2.9861   50.3795 C.3     1  ZINC001060620810   -0.1500
     20 C20        -1.2156    4.3461   49.9064 C.3     1  ZINC001060620810   -0.1100
     21 H21        -1.9638    4.8353   50.5299 H       1  ZINC001060620810    0.1100
     22 C22        -0.1675    5.2861   49.3191 C.3     1  ZINC001060620810   -0.0900
     23 C23        -0.0351    5.0650   47.8122 C.3     1  ZINC001060620810   -0.1200
     24 C24         0.2267    3.5761   47.5579 C.3     1  ZINC001060620810   -0.1200
     25 C25        -1.0776    2.8083   47.7723 C.3     1  ZINC001060620810   -0.0800
     26 H26        -3.4260    3.8842   50.9179 H       1  ZINC001060620810    0.4000
     27 H27        -5.6937    2.7074   49.5465 H       1  ZINC001060620810    0.0900
     28 H28        -4.7241    0.7092   50.6493 H       1  ZINC001060620810    0.0700
     29 H29        -4.7647    1.5539   52.2155 H       1  ZINC001060620810    0.0600
     30 H30        -6.7310    0.0657   51.9556 H       1  ZINC001060620810    0.0700
     31 H31        -7.1872    0.9285   50.4671 H       1  ZINC001060620810    0.0800
     32 H32        -8.4760    1.7671   52.4124 H       1  ZINC001060620810    0.1000
     33 H33        -5.9070    1.8275   53.7216 H       1  ZINC001060620810    0.4100
     34 H34        -6.7314    4.2546   57.5016 H       1  ZINC001060620810    0.1800
     35 H35       -10.4542    3.8538   55.4334 H       1  ZINC001060620810    0.1800
     36 H36        -7.9254    4.1698   52.1425 H       1  ZINC001060620810    0.0800
     37 H37        -7.8847    3.3251   50.5763 H       1  ZINC001060620810    0.0900
     38 H38        -5.4622    3.9505   52.3247 H       1  ZINC001060620810    0.0700
     39 H39        -5.9184    4.8133   50.8361 H       1  ZINC001060620810    0.0800
     40 H40        -1.1945    2.5992   51.2959 H       1  ZINC001060620810    0.1000
     41 H41         0.2968    2.7252   50.2173 H       1  ZINC001060620810    0.1100
     42 H42         0.7881    5.0774   49.8000 H       1  ZINC001060620810    0.0700
     43 H43        -0.4490    6.3218   49.5090 H       1  ZINC001060620810    0.0700
     44 H44         0.7975    5.6539   47.4275 H       1  ZINC001060620810    0.0700
     45 H45        -0.9585    5.3641   47.3159 H       1  ZINC001060620810    0.0700
     46 H46         0.9834    3.2136   48.2539 H       1  ZINC001060620810    0.0700
     47 H47         0.5706    3.4347   46.5333 H       1  ZINC001060620810    0.0700
     48 H48        -0.8853    1.7393   47.6788 H       1  ZINC001060620810    0.0700
     49 H49        -1.8011    3.1110   47.0153 H       1  ZINC001060620810    0.0700
@<TRIPOS>BOND
     1     1     2    2
     2     2     3   am
     3     2    18    1
     4     3     4    1
     5     3    26    1
     6     4    17    1
     7     4     5    1
     8     4    27    1
     9     5     6    1
    10     5    28    1
    11     5    29    1
    12     6     7    1
    13     6    30    1
    14     6    31    1
    15     7     8    1
    16     7    16    1
    17     7    32    1
    18     8     9    1
    19     8    33    1
    20     9    15   ar
    21     9    10   ar
    22    10    11   ar
    23    11    12   ar
    24    11    34    1
    25    12    13    1
    26    12    14   ar
    27    14    15   ar
    28    14    35    1
    29    16    17    1
    30    16    36    1
    31    16    37    1
    32    17    38    1
    33    17    39    1
    34    18    20    1
    35    18    25    1
    36    18    19    1
    37    19    20    1
    38    19    40    1
    39    19    41    1
    40    20    21    1
    41    20    22    1
    42    22    23    1
    43    22    42    1
    44    22    43    1
    45    23    24    1
    46    23    44    1
    47    23    45    1
    48    24    25    1
    49    24    46    1
    50    24    47    1
    51    25    48    1
    52    25    49    1
@<TRIPOS>SUBSTRUCTURE
     1 ZINC001060620810        1 TEMP              0 ****  ****    0 ROOT


##########                                Name:    ZINC000579444893
##########                DOCK_Rotatable_Bonds:                   8
##########                         Heavy_Atoms:                  26
##########                    Molecular_Weight:             365.494
##########                DOCK_Rotatable_Bonds:                   8
##########                       Formal_Charge:         -0.00999993
##########                     HBond_Acceptors:                   7
##########                        HBond_Donors:                   1
##########                         Heavy_Atoms:                  26
##########                          Grid_Score:          -26.616381
##########                     Grid_vdw_energy:          -25.248421
##########                      Grid_es_energy:           -1.367961
##########           Internal_energy_repulsive:           56.863453

@<TRIPOS>MOLECULE
ZINC000579444893
 58 60 1 0 0
SMALL
USER_CHARGES


@<TRIPOS>ATOM
      1 C1          1.2690    1.7186   47.6356 C.3     1  ZINC000579444893   -0.1600
      2 C2         -0.1675    2.2294   47.7640 C.3     1  ZINC000579444893    0.1700
      3 H3         -0.8597    1.4537   47.4368 H       1  ZINC000579444893    0.0900
      4 N4         -0.4415    2.5700   49.1623 N.am    1  ZINC000579444893   -0.7400
      5 C5         -1.7123    2.6143   49.6086 C.2     1  ZINC000579444893    0.7100
      6 O6         -2.6317    2.3729   48.8503 O.2     1  ZINC000579444893   -0.5900
      7 N7         -1.9642    2.9261   50.8954 N.am    1  ZINC000579444893   -0.6300
      8 C8         -0.8565    3.2151   51.8094 C.3     1  ZINC000579444893    0.0800
      9 C9         -3.3458    2.9759   51.3801 C.3     1  ZINC000579444893    0.1100
     10 C10        -3.9617    4.3312   51.0266 C.3     1  ZINC000579444893    0.0600
     11 H11        -3.9165    4.4891   49.9491 H       1  ZINC000579444893    0.1000
     12 C12        -3.2014    5.4594   51.7550 C.3     1  ZINC000579444893   -0.1600
     13 C13        -4.3332    6.4425   52.1541 C.3     1  ZINC000579444893    0.0800
     14 H14        -4.5934    7.0969   51.3222 H       1  ZINC000579444893    0.1000
     15 F15        -3.9741    7.1887   53.2818 F       1  ZINC000579444893   -0.2000
     16 C16        -5.4935    5.4689   52.4783 C.3     1  ZINC000579444893    0.0200
     17 N17        -5.3632    4.3795   51.4823 N.3     1  ZINC000579444893   -0.5000
     18 C18        -5.7752    3.0908   52.0546 C.3     1  ZINC000579444893    0.1000
     19 C19        -7.1985    3.1888   52.5401 C.2     1  ZINC000579444893    0.0800
     20 C20        -7.6137    3.0718   53.8226 C.2     1  ZINC000579444893   -0.2500
     21 C21        -9.0038    3.2262   53.8407 C.2     1  ZINC000579444893    0.0400
     22 N22        -9.4085    3.4286   52.6130 N.2     1  ZINC000579444893   -0.2900
     23 N23        -8.2865    3.4148   51.7745 N.pl3   1  ZINC000579444893   -0.3700
     24 C24        -8.2940    3.6030   50.3216 C.3     1  ZINC000579444893    0.0900
     25 C25        -0.3464    3.4735   46.8915 C.3     1  ZINC000579444893   -0.1000
     26 C26         0.6406    4.5858   47.3246 C.3     1  ZINC000579444893   -0.1200
     27 C27         0.7627    5.4512   46.0459 C.3     1  ZINC000579444893   -0.1300
     28 C28         0.7492    4.4265   44.8928 C.3     1  ZINC000579444893   -0.1300
     29 C29         0.0440    3.1690   45.4305 C.3     1  ZINC000579444893   -0.1200
     30 H30         1.4227    0.8891   48.3257 H       1  ZINC000579444893    0.0600
     31 H31         1.4439    1.3791   46.6146 H       1  ZINC000579444893    0.0700
     32 H32         1.9637    2.5237   47.8747 H       1  ZINC000579444893    0.0500
     33 H33         0.2919    2.7637   49.7669 H       1  ZINC000579444893    0.4000
     34 H34        -0.5722    4.2631   51.7158 H       1  ZINC000579444893    0.0600
     35 H35        -1.1688    3.0134   52.8341 H       1  ZINC000579444893    0.0800
     36 H36        -0.0042    2.5837   51.5584 H       1  ZINC000579444893    0.0700
     37 H37        -3.9245    2.1804   50.9107 H       1  ZINC000579444893    0.0900
     38 H38        -3.3564    2.8432   52.4619 H       1  ZINC000579444893    0.0900
     39 H39        -2.6955    5.0741   52.6402 H       1  ZINC000579444893    0.1100
     40 H40        -2.4912    5.9415   51.0832 H       1  ZINC000579444893    0.0800
     41 H41        -5.3874    5.0752   53.4893 H       1  ZINC000579444893    0.0600
     42 H42        -6.4538    5.9718   52.3650 H       1  ZINC000579444893    0.0900
     43 H43        -5.7040    2.3152   51.2921 H       1  ZINC000579444893    0.1100
     44 H44        -5.1226    2.8393   52.8907 H       1  ZINC000579444893    0.0500
     45 H45        -6.9834    2.8908   54.6806 H       1  ZINC000579444893    0.1500
     46 H46        -9.6342    3.1848   54.7166 H       1  ZINC000579444893    0.1800
     47 H47        -8.1302    4.6556   50.0908 H       1  ZINC000579444893    0.0800
     48 H48        -7.5005    3.0050   49.8736 H       1  ZINC000579444893    0.0800
     49 H49        -9.2571    3.2886   49.9195 H       1  ZINC000579444893    0.0900
     50 H50        -1.3747    3.8311   46.9450 H       1  ZINC000579444893    0.0800
     51 H51         0.2283    5.1691   48.1479 H       1  ZINC000579444893    0.0700
     52 H52         1.6065    4.1606   47.5969 H       1  ZINC000579444893    0.0700
     53 H53        -0.0856    6.1305   45.9625 H       1  ZINC000579444893    0.0700
     54 H54         1.6996    6.0083   46.0502 H       1  ZINC000579444893    0.0700
     55 H55         0.1986    4.8286   44.0424 H       1  ZINC000579444893    0.0600
     56 H56         1.7698    4.1842   44.5965 H       1  ZINC000579444893    0.0600
     57 H57         0.7223    2.3166   45.3953 H       1  ZINC000579444893    0.0600
     58 H58        -0.8489    2.9609   44.8411 H       1  ZINC000579444893    0.0600
@<TRIPOS>BOND
     1     1     2    1
     2     1    30    1
     3     1    31    1
     4     1    32    1
     5     2     3    1
     6     2     4    1
     7     2    25    1
     8     4     5   am
     9     4    33    1
    10     5     6    2
    11     5     7   am
    12     7     8    1
    13     7     9    1
    14     8    34    1
    15     8    35    1
    16     8    36    1
    17     9    10    1
    18     9    37    1
    19     9    38    1
    20    10    11    1
    21    10    17    1
    22    10    12    1
    23    12    13    1
    24    12    39    1
    25    12    40    1
    26    13    14    1
    27    13    15    1
    28    13    16    1
    29    16    17    1
    30    16    41    1
    31    16    42    1
    32    17    18    1
    33    18    19    1
    34    18    43    1
    35    18    44    1
    36    19    23    1
    37    19    20    2
    38    20    21    1
    39    20    45    1
    40    21    22    2
    41    21    46    1
    42    22    23    1
    43    23    24    1
    44    24    47    1
    45    24    48    1
    46    24    49    1
    47    25    29    1
    48    25    26    1
    49    25    50    1
    50    26    27    1
    51    26    51    1
    52    26    52    1
    53    27    28    1
    54    27    53    1
    55    27    54    1
    56    28    29    1
    57    28    55    1
    58    28    56    1
    59    29    57    1
    60    29    58    1
@<TRIPOS>SUBSTRUCTURE
     1 ZINC000579444893        1 TEMP              0 ****  ****    0 ROOT


##########                                Name:    ZINC000826052721
##########                DOCK_Rotatable_Bonds:                   3
##########                         Heavy_Atoms:                  29
##########                    Molecular_Weight:             393.399
##########                DOCK_Rotatable_Bonds:                   3
##########                       Formal_Charge:        -4.47035e-07
##########                     HBond_Acceptors:                   9
##########                        HBond_Donors:                   2
##########                         Heavy_Atoms:                  29
##########                          Grid_Score:          -26.609137
##########                     Grid_vdw_energy:          -23.095015
##########                      Grid_es_energy:           -3.514123
##########           Internal_energy_repulsive:           25.926775

@<TRIPOS>MOLECULE
ZINC000826052721
 46 50 1 0 0
SMALL
USER_CHARGES


@<TRIPOS>ATOM
      1 C1        -18.8918   -2.2363   60.1259 C.3     1  ZINC000826052721   -0.0400
      2 N2        -17.6242   -1.9530   59.4398 N.4     1  ZINC000826052721   -0.3800
      3 H3        -17.4853   -0.9551   59.3854 H       1  ZINC000826052721    0.4300
      4 C4        -17.6614   -2.5175   58.0877 C.3     1  ZINC000826052721    0.0500
      5 C5        -16.3218   -2.3708   57.4156 C.ar    1  ZINC000826052721   -0.1300
      6 C6        -16.2576   -2.4792   56.0347 C.ar    1  ZINC000826052721   -0.1000
      7 C7        -15.0476   -2.3569   55.3809 C.ar    1  ZINC000826052721   -0.1000
      8 C8        -13.8935   -2.1252   56.1053 C.ar    1  ZINC000826052721   -0.0800
      9 C9        -13.9558   -2.0155   57.4805 C.ar    1  ZINC000826052721   -0.0800
     10 C10       -15.1700   -2.1371   58.1372 C.ar    1  ZINC000826052721   -0.1200
     11 C11       -15.1962   -2.0076   59.6388 C.3     1  ZINC000826052721    0.1100
     12 H12       -15.1075   -0.9565   59.9135 H       1  ZINC000826052721    0.1100
     13 N13       -14.0727   -2.7594   60.2136 N.3     1  ZINC000826052721   -0.6200
     14 C14       -13.1098   -1.9040   60.7162 C.ar    1  ZINC000826052721    0.1600
     15 C15       -13.4234   -0.9626   61.7026 C.ar    1  ZINC000826052721   -0.0400
     16 C16       -14.8002   -0.8646   62.2293 C.2     1  ZINC000826052721    0.0700
     17 N17       -15.6657    0.1310   62.0233 N.2     1  ZINC000826052721   -0.3800
     18 N18       -16.7528   -0.1654   62.6498 N.2     1  ZINC000826052721   -0.1600
     19 N19       -16.6052   -1.2962   63.2460 N.2     1  ZINC000826052721   -0.1700
     20 N20       -15.4224   -1.7515   63.0097 N.pl3   1  ZINC000826052721   -0.3400
     21 C21       -12.4171   -0.1162   62.1898 C.ar    1  ZINC000826052721    0.1800
     22 N22       -11.1897   -0.1771   61.7382 N.ar    1  ZINC000826052721   -0.4700
     23 C23       -10.8256   -1.0520   60.7911 C.ar    1  ZINC000826052721    0.0900
     24 C24        -9.4999   -1.0947   60.3226 C.ar    1  ZINC000826052721    0.1700
     25 F25        -8.5751   -0.2493   60.8277 F       1  ZINC000826052721   -0.1100
     26 C26        -9.1509   -1.9929   59.3576 C.ar    1  ZINC000826052721   -0.1900
     27 C27       -10.0899   -2.8735   58.8236 C.ar    1  ZINC000826052721    0.1300
     28 F28        -9.7141   -3.7518   57.8683 F       1  ZINC000826052721   -0.1300
     29 C29       -11.3850   -2.8586   59.2546 C.ar    1  ZINC000826052721   -0.1500
     30 C30       -11.7761   -1.9477   60.2460 C.ar    1  ZINC000826052721   -0.0600
     31 C31       -16.5123   -2.5656   60.1822 C.3     1  ZINC000826052721    0.0000
     32 H32       -19.0388   -3.3147   60.1871 H       1  ZINC000826052721    0.1200
     33 H33       -18.8627   -1.8159   61.1313 H       1  ZINC000826052721    0.1300
     34 H34       -19.7146   -1.7885   59.5686 H       1  ZINC000826052721    0.1200
     35 H35       -18.4171   -1.9953   57.5008 H       1  ZINC000826052721    0.1400
     36 H36       -17.9202   -3.5747   58.1466 H       1  ZINC000826052721    0.1400
     37 H37       -17.1588   -2.6599   55.4676 H       1  ZINC000826052721    0.1300
     38 H38       -15.0031   -2.4418   54.3052 H       1  ZINC000826052721    0.1300
     39 H39       -12.9453   -2.0299   55.5969 H       1  ZINC000826052721    0.1300
     40 H40       -13.0543   -1.8337   58.0467 H       1  ZINC000826052721    0.1400
     41 H41       -13.6758   -3.3917   59.5349 H       1  ZINC000826052721    0.4100
     42 H42       -12.6617    0.6068   62.9539 H       1  ZINC000826052721    0.1800
     43 H43        -8.1316   -2.0220   59.0015 H       1  ZINC000826052721    0.1600
     44 H44       -12.1049   -3.5449   58.8337 H       1  ZINC000826052721    0.1400
     45 H45       -16.5340   -3.6472   60.0487 H       1  ZINC000826052721    0.1400
     46 H46       -16.6031   -2.3231   61.2411 H       1  ZINC000826052721    0.1400
@<TRIPOS>BOND
     1     1     2    1
     2     1    32    1
     3     1    33    1
     4     1    34    1
     5     2     3    1
     6     2    31    1
     7     2     4    1
     8     4     5    1
     9     4    35    1
    10     4    36    1
    11     5    10   ar
    12     5     6   ar
    13     6     7   ar
    14     6    37    1
    15     7     8   ar
    16     7    38    1
    17     8     9   ar
    18     8    39    1
    19     9    10   ar
    20     9    40    1
    21    10    11    1
    22    11    12    1
    23    11    13    1
    24    11    31    1
    25    13    14    1
    26    13    41    1
    27    14    30   ar
    28    14    15   ar
    29    15    16    1
    30    15    21   ar
    31    16    20    1
    32    16    17    2
    33    17    18    1
    34    18    19    2
    35    19    20    1
    36    21    22   ar
    37    21    42    1
    38    22    23   ar
    39    23    30   ar
    40    23    24   ar
    41    24    25    1
    42    24    26   ar
    43    26    27   ar
    44    26    43    1
    45    27    28    1
    46    27    29   ar
    47    29    30   ar
    48    29    44    1
    49    31    45    1
    50    31    46    1
@<TRIPOS>SUBSTRUCTURE
     1 ZINC000826052721        1 TEMP              0 ****  ****    0 ROOT


##########                                Name:    ZINC000477669194
##########                DOCK_Rotatable_Bonds:                   6
##########                         Heavy_Atoms:                  26
##########                    Molecular_Weight:             387.483
##########                DOCK_Rotatable_Bonds:                   6
##########                       Formal_Charge:         4.47035e-07
##########                     HBond_Acceptors:                   8
##########                        HBond_Donors:                   2
##########                         Heavy_Atoms:                  26
##########                          Grid_Score:          -26.609055
##########                     Grid_vdw_energy:          -27.135868
##########                      Grid_es_energy:            0.526814
##########           Internal_energy_repulsive:           31.462429

@<TRIPOS>MOLECULE
ZINC000477669194
 43 45 1 0 0
SMALL
USER_CHARGES


@<TRIPOS>ATOM
      1 C1          1.9919    0.3742   49.9245 C.3     1  ZINC000477669194   -0.0800
      2 C2          2.7012    0.1897   48.6076 C.2     1  ZINC000477669194    0.0500
      3 N3          2.6149    0.9970   47.6077 N.2     1  ZINC000477669194   -0.4900
      4 C4          3.3055    0.6873   46.5199 C.2     1  ZINC000477669194    0.1200
      5 C5          3.3006    1.5241   45.2954 C.ar    1  ZINC000477669194   -0.0600
      6 C6          4.1688    1.2337   44.2463 C.ar    1  ZINC000477669194   -0.0800
      7 C7          4.1606    2.0158   43.1083 C.ar    1  ZINC000477669194   -0.1400
      8 C8          3.2925    3.0881   43.0053 C.ar    1  ZINC000477669194   -0.0900
      9 C9          2.4263    3.3865   44.0403 C.ar    1  ZINC000477669194   -0.1300
     10 C10         2.4191    2.6061   45.1866 C.ar    1  ZINC000477669194    0.1800
     11 N11         1.5436    2.9060   46.2340 N.am    1  ZINC000477669194   -0.6500
     12 C12         0.2396    3.1309   45.9787 C.2     1  ZINC000477669194    0.5600
     13 O13        -0.1754    3.0729   44.8371 O.2     1  ZINC000477669194   -0.5200
     14 C14        -0.6844    3.4474   47.0840 C.ar    1  ZINC000477669194   -0.1500
     15 C15        -1.6589    2.5217   47.4690 C.ar    1  ZINC000477669194   -0.0600
     16 C16        -2.5191    2.8197   48.5009 C.ar    1  ZINC000477669194   -0.1400
     17 C17        -2.4198    4.0413   49.1612 C.ar    1  ZINC000477669194    0.1700
     18 N18        -3.2907    4.3394   50.2035 N.am    1  ZINC000477669194   -1.0600
     19 S19        -4.0508    3.1172   51.0224 S.o2    1  ZINC000477669194    2.6100
     20 C20        -5.0634    3.9662   52.2651 C.3     1  ZINC000477669194   -0.6700
     21 O21        -4.8759    2.4999   50.0440 O.2     1  ZINC000477669194   -0.9400
     22 O22        -2.9927    2.4018   51.6454 O.2     1  ZINC000477669194   -0.9500
     23 C23        -1.4502    4.9649   48.7804 C.ar    1  ZINC000477669194   -0.1600
     24 C24        -0.5838    4.6710   47.7526 C.ar    1  ZINC000477669194   -0.0300
     25 C25         4.0135   -0.4556   46.6246 C.2     1  ZINC000477669194   -0.2600
     26 S26         3.7386   -1.1164   48.2345 S.3     1  ZINC000477669194    0.1500
     27 H27         2.2442   -0.4500   50.5917 H       1  ZINC000477669194    0.0800
     28 H28         2.3036    1.3159   50.3762 H       1  ZINC000477669194    0.0900
     29 H29         0.9148    0.3901   49.7579 H       1  ZINC000477669194    0.0900
     30 H30         4.8484    0.3978   44.3227 H       1  ZINC000477669194    0.1300
     31 H31         4.8348    1.7897   42.2955 H       1  ZINC000477669194    0.1300
     32 H32         3.2919    3.6952   42.1121 H       1  ZINC000477669194    0.1300
     33 H33         1.7515    4.2252   43.9543 H       1  ZINC000477669194    0.1500
     34 H34         1.8746    2.9523   47.1446 H       1  ZINC000477669194    0.4200
     35 H35        -1.7367    1.5741   46.9570 H       1  ZINC000477669194    0.1300
     36 H36        -3.2724    2.1054   48.7986 H       1  ZINC000477669194    0.1400
     37 H37        -3.4529    5.2632   50.4508 H       1  ZINC000477669194    0.4300
     38 H38        -5.8321    4.5563   51.7660 H       1  ZINC000477669194    0.1300
     39 H39        -5.5357    3.2290   52.9144 H       1  ZINC000477669194    0.1400
     40 H40        -4.4309    4.6236   52.8617 H       1  ZINC000477669194    0.1300
     41 H41        -1.3754    5.9116   49.2949 H       1  ZINC000477669194    0.1700
     42 H42         0.1684    5.3878   47.4579 H       1  ZINC000477669194    0.1500
     43 H43         4.6408   -0.8873   45.8589 H       1  ZINC000477669194    0.1800
@<TRIPOS>BOND
     1     1     2    1
     2     1    27    1
     3     1    28    1
     4     1    29    1
     5     2    26    1
     6     2     3    2
     7     3     4    1
     8     4     5    1
     9     4    25    2
    10     5    10   ar
    11     5     6   ar
    12     6     7   ar
    13     6    30    1
    14     7     8   ar
    15     7    31    1
    16     8     9   ar
    17     8    32    1
    18     9    10   ar
    19     9    33    1
    20    10    11    1
    21    11    12   am
    22    11    34    1
    23    12    13    2
    24    12    14    1
    25    14    24   ar
    26    14    15   ar
    27    15    16   ar
    28    15    35    1
    29    16    17   ar
    30    16    36    1
    31    17    18    1
    32    17    23   ar
    33    18    19   am
    34    18    37    1
    35    19    20    1
    36    19    21    2
    37    19    22    2
    38    20    38    1
    39    20    39    1
    40    20    40    1
    41    23    24   ar
    42    23    41    1
    43    24    42    1
    44    25    26    1
    45    25    43    1
@<TRIPOS>SUBSTRUCTURE
     1 ZINC000477669194        1 TEMP              0 ****  ****    0 ROOT


##########                                Name:    ZINC001291841503
##########                DOCK_Rotatable_Bonds:                   7
##########                         Heavy_Atoms:                  28
##########                    Molecular_Weight:             397.544
##########                DOCK_Rotatable_Bonds:                   7
##########                       Formal_Charge:         -0.00999964
##########                     HBond_Acceptors:                   7
##########                        HBond_Donors:                   0
##########                         Heavy_Atoms:                  28
##########                          Grid_Score:          -26.592747
##########                     Grid_vdw_energy:          -25.101530
##########                      Grid_es_energy:           -1.491217
##########           Internal_energy_repulsive:           13.143158

@<TRIPOS>MOLECULE
ZINC001291841503
 55 58 1 0 0
SMALL
USER_CHARGES


@<TRIPOS>ATOM
      1 C1        -10.7043   -0.5214   54.9166 C.3     1  ZINC001291841503   -0.1500
      2 C2        -11.9790   -0.7564   55.7297 C.3     1  ZINC001291841503   -0.1100
      3 C3        -11.6062   -1.2038   57.1445 C.3     1  ZINC001291841503    0.0500
      4 H4        -10.5956   -0.8681   57.3774 H       1  ZINC001291841503    0.0900
      5 C5        -12.5744   -0.6053   58.1321 C.2     1  ZINC001291841503    0.2000
      6 N6        -13.8058   -0.2546   57.8905 N.2     1  ZINC001291841503   -0.2700
      7 N7        -14.3459    0.2202   58.9558 N.2     1  ZINC001291841503   -0.3100
      8 C8        -13.4810    0.1975   59.9423 C.2     1  ZINC001291841503    0.3600
      9 N9        -13.7011    0.6279   61.2411 N.3     1  ZINC001291841503   -0.4500
     10 C10       -13.9080    2.0816   61.2860 C.3     1  ZINC001291841503    0.0200
     11 C11       -14.8344   -0.0840   61.8466 C.3     1  ZINC001291841503    0.0700
     12 H12       -15.7666    0.1767   61.3456 H       1  ZINC001291841503    0.0800
     13 C13       -14.6019   -1.6193   61.8172 C.3     1  ZINC001291841503   -0.1400
     14 C14       -15.4317   -2.0661   63.0472 C.3     1  ZINC001291841503    0.0500
     15 O15       -15.2553   -1.0221   64.0179 O.3     1  ZINC001291841503   -0.3800
     16 C16       -14.9228    0.2099   63.3596 C.3     1  ZINC001291841503    0.0600
     17 N17       -12.3256   -0.3353   59.4492 N.pl3   1  ZINC001291841503   -0.4700
     18 C18       -11.0747   -0.5619   60.1774 C.3     1  ZINC001291841503    0.1900
     19 C19       -10.0231    0.3960   59.6800 C.2     1  ZINC001291841503   -0.2700
     20 C20        -8.7134    0.1469   59.5874 C.2     1  ZINC001291841503    0.0800
     21 N21        -7.9979    1.1504   59.1206 N.2     1  ZINC001291841503   -0.4800
     22 C22        -8.6312    2.2320   58.8143 C.2     1  ZINC001291841503    0.0500
     23 C23        -7.9901    3.4816   58.2681 C.3     1  ZINC001291841503   -0.0800
     24 S24       -10.3040    2.0397   59.1109 S.3     1  ZINC001291841503    0.1800
     25 C25       -11.6678   -2.7072   57.2286 C.ar    1  ZINC001291841503   -0.0900
     26 C26       -12.8736   -3.3604   57.0540 C.ar    1  ZINC001291841503   -0.0900
     27 C27       -12.9301   -4.7394   57.1311 C.ar    1  ZINC001291841503   -0.1200
     28 C28       -11.7809   -5.4653   57.3822 C.ar    1  ZINC001291841503   -0.1200
     29 C29       -10.5750   -4.8122   57.5560 C.ar    1  ZINC001291841503   -0.1200
     30 C30       -10.5176   -3.4334   57.4745 C.ar    1  ZINC001291841503   -0.1100
     31 H31       -10.1049    0.2523   55.3963 H       1  ZINC001291841503    0.0500
     32 H32       -10.1302   -1.4465   54.8657 H       1  ZINC001291841503    0.0500
     33 H33       -10.9699   -0.2027   53.9086 H       1  ZINC001291841503    0.0600
     34 H34       -12.5531    0.1687   55.7807 H       1  ZINC001291841503    0.0800
     35 H35       -12.5784   -1.5301   55.2500 H       1  ZINC001291841503    0.0800
     36 H36       -14.8270    2.3344   60.7570 H       1  ZINC001291841503    0.0500
     37 H37       -13.9854    2.4057   62.3238 H       1  ZINC001291841503    0.0900
     38 H38       -13.0653    2.5835   60.8105 H       1  ZINC001291841503    0.0700
     39 H39       -14.9926   -2.0584   60.8993 H       1  ZINC001291841503    0.0900
     40 H40       -13.5466   -1.8594   61.9471 H       1  ZINC001291841503    0.0800
     41 H41       -16.4842   -2.1599   62.7796 H       1  ZINC001291841503    0.0700
     42 H42       -15.0535   -3.0117   63.4356 H       1  ZINC001291841503    0.0900
     43 H43       -13.9605    0.5737   63.7198 H       1  ZINC001291841503    0.0800
     44 H44       -15.6964    0.9531   63.5532 H       1  ZINC001291841503    0.0700
     45 H45       -11.2398   -0.3992   61.2425 H       1  ZINC001291841503    0.1100
     46 H46       -10.7397   -1.5862   60.0140 H       1  ZINC001291841503    0.1100
     47 H47        -8.2770   -0.7993   59.8716 H       1  ZINC001291841503    0.1700
     48 H48        -7.9693    3.4332   57.1793 H       1  ZINC001291841503    0.0900
     49 H49        -8.5655    4.3524   58.5821 H       1  ZINC001291841503    0.0800
     50 H50        -6.9714    3.5632   58.6476 H       1  ZINC001291841503    0.0900
     51 H51       -13.7714   -2.7932   56.8576 H       1  ZINC001291841503    0.1300
     52 H52       -13.8723   -5.2496   56.9953 H       1  ZINC001291841503    0.1200
     53 H53       -11.8252   -6.5426   57.4432 H       1  ZINC001291841503    0.1200
     54 H54        -9.6772   -5.3794   57.7525 H       1  ZINC001291841503    0.1200
     55 H55        -9.5755   -2.9232   57.6102 H       1  ZINC001291841503    0.1200
@<TRIPOS>BOND
     1     1     2    1
     2     1    31    1
     3     1    32    1
     4     1    33    1
     5     2     3    1
     6     2    34    1
     7     2    35    1
     8     3     4    1
     9     3     5    1
    10     3    25    1
    11     5    17    1
    12     5     6    2
    13     6     7    1
    14     7     8    2
    15     8     9    1
    16     8    17    1
    17     9    10    1
    18     9    11    1
    19    10    36    1
    20    10    37    1
    21    10    38    1
    22    11    12    1
    23    11    16    1
    24    11    13    1
    25    13    14    1
    26    13    39    1
    27    13    40    1
    28    14    15    1
    29    14    41    1
    30    14    42    1
    31    15    16    1
    32    16    43    1
    33    16    44    1
    34    17    18    1
    35    18    19    1
    36    18    45    1
    37    18    46    1
    38    19    24    1
    39    19    20    2
    40    20    21    1
    41    20    47    1
    42    21    22    2
    43    22    23    1
    44    22    24    1
    45    23    48    1
    46    23    49    1
    47    23    50    1
    48    25    30   ar
    49    25    26   ar
    50    26    27   ar
    51    26    51    1
    52    27    28   ar
    53    27    52    1
    54    28    29   ar
    55    28    53    1
    56    29    30   ar
    57    29    54    1
    58    30    55    1
@<TRIPOS>SUBSTRUCTURE
     1 ZINC001291841503        1 TEMP              0 ****  ****    0 ROOT


##########                                Name:    ZINC000460163972
##########                DOCK_Rotatable_Bonds:                   7
##########                         Heavy_Atoms:                  28
##########                    Molecular_Weight:             408.469
##########                DOCK_Rotatable_Bonds:                   7
##########                       Formal_Charge:          -0.0100001
##########                     HBond_Acceptors:                   8
##########                        HBond_Donors:                   2
##########                         Heavy_Atoms:                  28
##########                          Grid_Score:          -26.587538
##########                     Grid_vdw_energy:          -26.510136
##########                      Grid_es_energy:           -0.077401
##########           Internal_energy_repulsive:           46.666679

@<TRIPOS>MOLECULE
ZINC000460163972
 50 52 1 0 0
SMALL
USER_CHARGES


@<TRIPOS>ATOM
      1 C1        -13.6759   -5.1286   56.1638 C.3     1  ZINC000460163972   -0.1400
      2 C2        -12.7033   -4.1621   56.7892 C.ar    1  ZINC000460163972    0.0100
      3 C3        -11.5546   -4.6352   57.3960 C.ar    1  ZINC000460163972   -0.1300
      4 C4        -10.6610   -3.7520   57.9701 C.ar    1  ZINC000460163972   -0.0600
      5 C5        -10.9173   -2.3878   57.9370 C.ar    1  ZINC000460163972    0.1100
      6 N6        -10.0140   -1.4904   58.5173 N.am    1  ZINC000460163972   -0.6700
      7 C7         -9.9756   -1.3443   59.8566 C.2     1  ZINC000460163972    0.5200
      8 O8        -10.7240   -1.9908   60.5589 O.2     1  ZINC000460163972   -0.5100
      9 C9         -9.0028   -0.3779   60.4816 C.3     1  ZINC000460163972   -0.0700
     10 H10        -8.0812   -0.9023   60.7343 H       1  ZINC000460163972    0.1200
     11 C11        -8.6943    0.7471   59.4915 C.3     1  ZINC000460163972   -0.1500
     12 C12        -9.6078    0.2055   61.7324 C.ar    1  ZINC000460163972   -0.0600
     13 C13       -10.9025    0.6889   61.7123 C.ar    1  ZINC000460163972   -0.0700
     14 C14       -11.4599    1.2248   62.8585 C.ar    1  ZINC000460163972   -0.1200
     15 C15       -10.7215    1.2770   64.0276 C.ar    1  ZINC000460163972    0.0700
     16 F16       -11.2655    1.7999   65.1482 F       1  ZINC000460163972   -0.1300
     17 C17        -9.4225    0.7915   64.0479 C.ar    1  ZINC000460163972    0.0700
     18 F18        -8.6996    0.8414   65.1881 F       1  ZINC000460163972   -0.1300
     19 C19        -8.8693    0.2515   62.9002 C.ar    1  ZINC000460163972   -0.1200
     20 C20       -12.0720   -1.9157   57.3263 C.ar    1  ZINC000460163972    0.0000
     21 C21       -12.3539   -0.4358   57.2877 C.3     1  ZINC000460163972   -0.1500
     22 C22       -12.9589   -2.8035   56.7500 C.ar    1  ZINC000460163972   -0.6700
     23 S23       -14.4237   -2.2056   55.9745 S.o2    1  ZINC000460163972    2.7000
     24 O24       -14.7499   -3.1421   54.9567 O.2     1  ZINC000460163972   -0.9500
     25 O25       -15.3171   -1.8533   57.0218 O.2     1  ZINC000460163972   -0.9500
     26 N26       -14.0286   -0.7948   55.2025 N.am    1  ZINC000460163972   -1.0900
     27 C27       -13.0056   -0.7952   54.1540 C.3     1  ZINC000460163972    0.0800
     28 C28       -13.3341   -0.0722   52.8461 C.3     1  ZINC000460163972   -0.1800
     29 C29       -12.3296    0.5376   53.8260 C.3     1  ZINC000460163972   -0.1900
     30 H30       -13.4681   -5.2140   55.0972 H       1  ZINC000460163972    0.1000
     31 H31       -13.5699   -6.1062   56.6342 H       1  ZINC000460163972    0.0800
     32 H32       -14.6931   -4.7644   56.3078 H       1  ZINC000460163972    0.0700
     33 H33       -11.3557   -5.6965   57.4214 H       1  ZINC000460163972    0.1400
     34 H34        -9.7642   -4.1223   58.4445 H       1  ZINC000460163972    0.1600
     35 H35        -9.4155   -0.9735   57.9558 H       1  ZINC000460163972    0.4100
     36 H36        -7.9907    1.4461   59.9436 H       1  ZINC000460163972    0.0800
     37 H37        -8.2567    0.3250   58.5868 H       1  ZINC000460163972    0.0700
     38 H38        -9.6158    1.2715   59.2389 H       1  ZINC000460163972    0.0700
     39 H39       -11.4793    0.6485   60.8001 H       1  ZINC000460163972    0.1400
     40 H40       -12.4713    1.6027   62.8413 H       1  ZINC000460163972    0.1500
     41 H41        -7.8579   -0.1272   62.9148 H       1  ZINC000460163972    0.1500
     42 H42       -12.0262   -0.0284   56.3313 H       1  ZINC000460163972    0.1000
     43 H43       -13.4240   -0.2665   57.4074 H       1  ZINC000460163972    0.1000
     44 H44       -11.8152    0.0580   58.0966 H       1  ZINC000460163972    0.0700
     45 H45       -14.4747    0.0319   55.4446 H       1  ZINC000460163972    0.4200
     46 H46       -12.3968   -1.6971   54.0915 H       1  ZINC000460163972    0.1300
     47 H47       -12.9414   -0.4985   51.9230 H       1  ZINC000460163972    0.1100
     48 H48       -14.3114    0.4038   52.7660 H       1  ZINC000460163972    0.1000
     49 H49       -12.6461    1.4147   54.3904 H       1  ZINC000460163972    0.1000
     50 H50       -11.2760    0.5124   53.5475 H       1  ZINC000460163972    0.1000
@<TRIPOS>BOND
     1     1     2    1
     2     1    30    1
     3     1    31    1
     4     1    32    1
     5     2    22   ar
     6     2     3   ar
     7     3     4   ar
     8     3    33    1
     9     4     5   ar
    10     4    34    1
    11     5     6    1
    12     5    20   ar
    13     6     7   am
    14     6    35    1
    15     7     8    2
    16     7     9    1
    17     9    10    1
    18     9    11    1
    19     9    12    1
    20    11    36    1
    21    11    37    1
    22    11    38    1
    23    12    19   ar
    24    12    13   ar
    25    13    14   ar
    26    13    39    1
    27    14    15   ar
    28    14    40    1
    29    15    16    1
    30    15    17   ar
    31    17    18    1
    32    17    19   ar
    33    19    41    1
    34    20    21    1
    35    20    22   ar
    36    21    42    1
    37    21    43    1
    38    21    44    1
    39    22    23    1
    40    23    24    2
    41    23    25    2
    42    23    26   am
    43    26    27    1
    44    26    45    1
    45    27    29    1
    46    27    28    1
    47    27    46    1
    48    28    29    1
    49    28    47    1
    50    28    48    1
    51    29    49    1
    52    29    50    1
@<TRIPOS>SUBSTRUCTURE
     1 ZINC000460163972        1 TEMP              0 ****  ****    0 ROOT


##########                                Name:    ZINC000864730443
##########                DOCK_Rotatable_Bonds:                  10
##########                         Heavy_Atoms:                  25
##########                    Molecular_Weight:             356.462
##########                DOCK_Rotatable_Bonds:                  10
##########                       Formal_Charge:           0.0299988
##########                     HBond_Acceptors:                   7
##########                        HBond_Donors:                   2
##########                         Heavy_Atoms:                  25
##########                          Grid_Score:          -26.535004
##########                     Grid_vdw_energy:          -24.225016
##########                      Grid_es_energy:           -2.309988
##########           Internal_energy_repulsive:           17.522108

@<TRIPOS>MOLECULE
ZINC000864730443
 57 58 1 0 0
SMALL
USER_CHARGES


@<TRIPOS>ATOM
      1 C1         -0.3493    4.4288   48.7937 C.3     1  ZINC000864730443   -0.1800
      2 C2         -1.4951    4.1240   49.7607 C.3     1  ZINC000864730443    0.1400
      3 C3         -1.1244    2.9187   50.6270 C.3     1  ZINC000864730443   -0.1800
      4 C4         -1.7432    5.3391   50.6567 C.3     1  ZINC000864730443   -0.1400
      5 O5         -2.6990    3.8255   49.0057 O.3     1  ZINC000864730443   -0.3600
      6 C6         -3.6150    3.0390   49.6016 C.2     1  ZINC000864730443    0.6500
      7 O7         -3.6796    1.8593   49.3178 O.2     1  ZINC000864730443   -0.5700
      8 N8         -4.4601    3.5602   50.5128 N.am    1  ZINC000864730443   -0.7100
      9 C9         -5.4557    2.7040   51.1626 C.3     1  ZINC000864730443    0.1500
     10 C10        -6.1912    3.5039   52.2396 C.3     1  ZINC000864730443   -0.1300
     11 C11        -7.0679    4.5409   51.5861 C.2     1  ZINC000864730443    0.5300
     12 O12        -6.9247    5.7143   51.8578 O.2     1  ZINC000864730443   -0.5300
     13 N13        -8.0110    4.1646   50.7001 N.am    1  ZINC000864730443   -0.7200
     14 C14        -8.8633    5.1728   50.0648 C.3     1  ZINC000864730443    0.1200
     15 C15        -9.4552    4.6009   48.7751 C.3     1  ZINC000864730443   -0.1300
     16 C16       -10.9321    4.2677   48.9956 C.3     1  ZINC000864730443    0.0800
     17 H17       -11.4691    5.1479   49.3492 H       1  ZINC000864730443    0.0800
     18 C18       -11.5665    3.7418   47.6834 C.3     1  ZINC000864730443   -0.1500
     19 C19       -12.7456    2.8999   48.2429 C.3     1  ZINC000864730443   -0.1600
     20 C20       -12.1556    2.3417   49.5558 C.3     1  ZINC000864730443    0.0500
     21 O21       -11.0652    3.1909   49.9369 O.3     1  ZINC000864730443   -0.3800
     22 C22        -7.0544    2.5578   53.0799 C.3     1  ZINC000864730443   -0.1000
     23 C23        -7.7243    3.3568   54.2021 C.3     1  ZINC000864730443   -0.1600
     24 C24        -6.6458    4.0538   55.0356 C.3     1  ZINC000864730443    0.0600
     25 O25        -5.8598    4.8942   54.1884 O.3     1  ZINC000864730443   -0.3700
     26 C26        -5.1719    4.1952   53.1489 C.3     1  ZINC000864730443    0.0800
     27 H27        -0.1725    3.5631   48.1554 H       1  ZINC000864730443    0.0900
     28 H28        -0.6133    5.2875   48.1764 H       1  ZINC000864730443    0.0600
     29 H29         0.5544    4.6528   49.3604 H       1  ZINC000864730443    0.0700
     30 H30        -0.2207    3.1428   51.1937 H       1  ZINC000864730443    0.0700
     31 H31        -1.9408    2.7016   51.3159 H       1  ZINC000864730443    0.0600
     32 H32        -0.9477    2.0531   49.9887 H       1  ZINC000864730443    0.0900
     33 H33        -2.0073    6.1979   50.0394 H       1  ZINC000864730443    0.0700
     34 H34        -2.5595    5.1220   51.3455 H       1  ZINC000864730443    0.0700
     35 H35        -0.8394    5.5632   51.2234 H       1  ZINC000864730443    0.0800
     36 H36        -4.4094    4.5022   50.7385 H       1  ZINC000864730443    0.4100
     37 H37        -6.1712    2.3508   50.4200 H       1  ZINC000864730443    0.0900
     38 H38        -4.9567    1.8503   51.6212 H       1  ZINC000864730443    0.0800
     39 H39        -8.1256    3.2262   50.4828 H       1  ZINC000864730443    0.4000
     40 H40        -9.6701    5.4468   50.7446 H       1  ZINC000864730443    0.0700
     41 H41        -8.2689    6.0562   49.8315 H       1  ZINC000864730443    0.0700
     42 H42        -9.3640    5.3366   47.9760 H       1  ZINC000864730443    0.0800
     43 H43        -8.9158    3.6951   48.4981 H       1  ZINC000864730443    0.0800
     44 H44       -11.9288    4.5634   47.0654 H       1  ZINC000864730443    0.0900
     45 H45       -10.8650    3.1168   47.1309 H       1  ZINC000864730443    0.0800
     46 H46       -13.6115    3.5306   48.4440 H       1  ZINC000864730443    0.0800
     47 H47       -13.0037    2.0914   47.5590 H       1  ZINC000864730443    0.0800
     48 H48       -12.9173    2.3479   50.3354 H       1  ZINC000864730443    0.0700
     49 H49       -11.7959    1.3252   49.3967 H       1  ZINC000864730443    0.0700
     50 H50        -7.8188    2.1043   52.4488 H       1  ZINC000864730443    0.0800
     51 H51        -6.4267    1.7783   53.5119 H       1  ZINC000864730443    0.0800
     52 H52        -8.3902    4.1038   53.7699 H       1  ZINC000864730443    0.0900
     53 H53        -8.2968    2.6817   54.8382 H       1  ZINC000864730443    0.0800
     54 H54        -7.1187    4.6582   55.8097 H       1  ZINC000864730443    0.1000
     55 H55        -6.0048    3.3045   55.5002 H       1  ZINC000864730443    0.0500
     56 H56        -4.5116    3.4478   53.5890 H       1  ZINC000864730443    0.0700
     57 H57        -4.5830    4.9015   52.5639 H       1  ZINC000864730443    0.1000
@<TRIPOS>BOND
     1     1     2    1
     2     1    27    1
     3     1    28    1
     4     1    29    1
     5     2     3    1
     6     2     4    1
     7     2     5    1
     8     3    30    1
     9     3    31    1
    10     3    32    1
    11     4    33    1
    12     4    34    1
    13     4    35    1
    14     5     6    1
    15     6     7    2
    16     6     8   am
    17     8     9    1
    18     8    36    1
    19     9    10    1
    20     9    37    1
    21     9    38    1
    22    10    26    1
    23    10    11    1
    24    10    22    1
    25    11    12    2
    26    11    13   am
    27    13    14    1
    28    13    39    1
    29    14    15    1
    30    14    40    1
    31    14    41    1
    32    15    16    1
    33    15    42    1
    34    15    43    1
    35    16    17    1
    36    16    21    1
    37    16    18    1
    38    18    19    1
    39    18    44    1
    40    18    45    1
    41    19    20    1
    42    19    46    1
    43    19    47    1
    44    20    21    1
    45    20    48    1
    46    20    49    1
    47    22    23    1
    48    22    50    1
    49    22    51    1
    50    23    24    1
    51    23    52    1
    52    23    53    1
    53    24    25    1
    54    24    54    1
    55    24    55    1
    56    25    26    1
    57    26    56    1
    58    26    57    1
@<TRIPOS>SUBSTRUCTURE
     1 ZINC000864730443        1 TEMP              0 ****  ****    0 ROOT


##########                                Name:    ZINC000302023461
##########                DOCK_Rotatable_Bonds:                   3
##########                         Heavy_Atoms:                  25
##########                    Molecular_Weight:             356.362
##########                DOCK_Rotatable_Bonds:                   3
##########                       Formal_Charge:        -2.08616e-07
##########                     HBond_Acceptors:                   9
##########                        HBond_Donors:                   1
##########                         Heavy_Atoms:                  25
##########                          Grid_Score:          -26.529327
##########                     Grid_vdw_energy:          -25.412294
##########                      Grid_es_energy:           -1.117033
##########           Internal_energy_repulsive:           20.013678

@<TRIPOS>MOLECULE
ZINC000302023461
 37 40 1 0 0
SMALL
USER_CHARGES


@<TRIPOS>ATOM
      1 O1          3.3095    1.3660   47.6374 O.2     1  ZINC000302023461   -0.1600
      2 N2          2.1382    1.3830   47.3035 N.pl3   1  ZINC000302023461    0.0200
      3 O3          1.3287    0.6838   47.8861 O.2     1  ZINC000302023461   -0.1300
      4 C4          1.6976    2.2581   46.1938 C.ar    1  ZINC000302023461    0.0000
      5 C5          2.6143    3.0510   45.5329 C.ar    1  ZINC000302023461   -0.0600
      6 C6          2.2035    3.8689   44.4958 C.ar    1  ZINC000302023461   -0.0900
      7 C7          0.8738    3.8954   44.1169 C.ar    1  ZINC000302023461   -0.0800
      8 C8         -0.0489    3.1049   44.7734 C.ar    1  ZINC000302023461   -0.0500
      9 C9          0.3612    2.2781   45.8122 C.ar    1  ZINC000302023461   -0.1100
     10 S10        -0.8123    1.2675   46.6523 S.3     1  ZINC000302023461    0.1900
     11 C11        -1.6465    2.4142   47.6980 C.2     1  ZINC000302023461    0.2100
     12 N12        -1.4411    3.7110   47.7241 N.2     1  ZINC000302023461   -0.3200
     13 N13        -2.3077    4.2435   48.6923 N.pl3   1  ZINC000302023461   -0.4700
     14 C14        -2.9994    3.1989   49.2011 C.2     1  ZINC000302023461    0.3500
     15 C15        -4.0343    3.2713   50.2550 C.ar    1  ZINC000302023461   -0.0400
     16 C16        -4.1578    4.4205   51.0364 C.ar    1  ZINC000302023461   -0.0900
     17 C17        -5.1225    4.4847   52.0196 C.ar    1  ZINC000302023461   -0.1100
     18 C18        -5.9733    3.4090   52.2364 C.ar    1  ZINC000302023461    0.0800
     19 O19        -6.9124    3.4911   53.2178 O.3     1  ZINC000302023461   -0.3000
     20 C20        -7.9871    2.5470   53.1615 C.3     1  ZINC000302023461    0.0200
     21 C21        -7.3929    1.1568   52.8989 C.3     1  ZINC000302023461    0.0200
     22 O22        -6.6864    1.1993   51.6544 O.3     1  ZINC000302023461   -0.3000
     23 C23        -5.8571    2.2609   51.4579 C.ar    1  ZINC000302023461    0.0500
     24 C24        -4.8938    2.1926   50.4669 C.ar    1  ZINC000302023461   -0.0500
     25 N25        -2.5928    2.1054   48.5871 N.2     1  ZINC000302023461   -0.5000
     26 H26         3.6536    3.0328   45.8263 H       1  ZINC000302023461    0.1600
     27 H27         2.9227    4.4886   43.9810 H       1  ZINC000302023461    0.1500
     28 H28         0.5565    4.5352   43.3067 H       1  ZINC000302023461    0.1500
     29 H29        -1.0873    3.1265   44.4774 H       1  ZINC000302023461    0.1600
     30 H30        -2.3930    5.1759   48.9460 H       1  ZINC000302023461    0.4400
     31 H31        -3.4978    5.2594   50.8715 H       1  ZINC000302023461    0.1300
     32 H32        -5.2165    5.3752   52.6236 H       1  ZINC000302023461    0.1500
     33 H33        -8.5238    2.5442   54.1102 H       1  ZINC000302023461    0.1300
     34 H34        -8.6688    2.8139   52.3539 H       1  ZINC000302023461    0.0800
     35 H35        -6.7057    0.8928   53.7029 H       1  ZINC000302023461    0.0800
     36 H36        -8.1936    0.4194   52.8421 H       1  ZINC000302023461    0.1300
     37 H37        -4.8045    1.3033   49.8606 H       1  ZINC000302023461    0.1600
@<TRIPOS>BOND
     1     1     2    2
     2     2     3    2
     3     2     4    1
     4     4     9   ar
     5     4     5   ar
     6     5     6   ar
     7     5    26    1
     8     6     7   ar
     9     6    27    1
    10     7     8   ar
    11     7    28    1
    12     8     9   ar
    13     8    29    1
    14     9    10    1
    15    10    11    1
    16    11    25    1
    17    11    12    2
    18    12    13    1
    19    13    14    1
    20    13    30    1
    21    14    15    1
    22    14    25    2
    23    15    24   ar
    24    15    16   ar
    25    16    17   ar
    26    16    31    1
    27    17    18   ar
    28    17    32    1
    29    18    23   ar
    30    18    19    1
    31    19    20    1
    32    20    21    1
    33    20    33    1
    34    20    34    1
    35    21    22    1
    36    21    35    1
    37    21    36    1
    38    22    23    1
    39    23    24   ar
    40    24    37    1
@<TRIPOS>SUBSTRUCTURE
     1 ZINC000302023461        1 TEMP              0 ****  ****    0 ROOT


##########                                Name:    ZINC001139743874
##########                DOCK_Rotatable_Bonds:                   5
##########                         Heavy_Atoms:                  28
##########                    Molecular_Weight:             382.506
##########                DOCK_Rotatable_Bonds:                   5
##########                       Formal_Charge:           0.0199992
##########                     HBond_Acceptors:                   6
##########                        HBond_Donors:                   0
##########                         Heavy_Atoms:                  28
##########                          Grid_Score:          -26.507891
##########                     Grid_vdw_energy:          -26.238785
##########                      Grid_es_energy:           -0.269106
##########           Internal_energy_repulsive:           17.171045

@<TRIPOS>MOLECULE
ZINC001139743874
 58 61 1 0 0
SMALL
USER_CHARGES


@<TRIPOS>ATOM
      1 C1        -16.8580   -3.0385   61.0159 C.3     1  ZINC001139743874   -0.1800
      2 C2        -16.1693   -2.2219   59.9205 C.3     1  ZINC001139743874    0.1400
      3 C3        -16.7718   -2.5819   58.5610 C.3     1  ZINC001139743874   -0.1800
      4 C4        -16.3754   -0.7302   60.1908 C.3     1  ZINC001139743874   -0.1400
      5 O5        -14.7485   -2.5211   59.9147 O.3     1  ZINC001139743874   -0.3600
      6 C6        -13.9859   -1.8836   60.8228 C.2     1  ZINC001139743874    0.6500
      7 O7        -14.1767   -2.0627   62.0094 O.2     1  ZINC001139743874   -0.5700
      8 N8        -13.0110   -1.0468   60.4158 N.am    1  ZINC001139743874   -0.5900
      9 C9        -12.7731   -0.8245   59.0248 C.3     1  ZINC001139743874    0.1000
     10 C10       -11.8265   -1.8445   58.3301 C.3     1  ZINC001139743874   -0.1300
     11 C11       -10.6479   -2.1861   59.2869 C.3     1  ZINC001139743874   -0.0900
     12 C12       -10.1817   -0.9864   60.0444 C.3     1  ZINC001139743874   -0.0800
     13 C13        -8.6645   -0.7681   60.0823 C.3     1  ZINC001139743874    0.0100
     14 N14        -8.8668    0.1046   58.9032 N.3     1  ZINC001139743874   -0.4700
     15 C15        -8.0666    1.3316   59.0131 C.3     1  ZINC001139743874    0.0600
     16 C16        -7.9539    1.9809   57.6578 C.ar    1  ZINC001139743874   -0.1200
     17 C17        -6.9873    2.9589   57.4320 C.ar    1  ZINC001139743874    0.1500
     18 N18        -6.8610    3.5444   56.2657 N.ar    1  ZINC001139743874   -0.4600
     19 C19        -7.6555    3.2272   55.2409 C.ar    1  ZINC001139743874    0.0800
     20 C20        -7.5169    3.8580   53.9882 C.ar    1  ZINC001139743874   -0.0400
     21 C21        -8.3611    3.4875   52.9817 C.ar    1  ZINC001139743874   -0.1600
     22 C22        -9.3282    2.5093   53.2075 C.ar    1  ZINC001139743874    0.1300
     23 N23        -9.4548    1.9242   54.3738 N.ar    1  ZINC001139743874   -0.4700
     24 C24        -8.6599    2.2413   55.3988 C.ar    1  ZINC001139743874    0.0800
     25 C25        -8.7951    1.6069   56.6496 C.ar    1  ZINC001139743874   -0.0400
     26 C26       -10.2724    0.3505   59.2994 C.3     1  ZINC001139743874    0.0000
     27 C27       -10.8389   -0.9647   61.4278 C.3     1  ZINC001139743874   -0.1300
     28 C28       -12.1574   -0.3245   61.4112 C.3     1  ZINC001139743874    0.1400
     29 H29       -16.7113   -4.1013   60.8233 H       1  ZINC001139743874    0.0900
     30 H30       -16.4288   -2.7821   61.9844 H       1  ZINC001139743874    0.0600
     31 H31       -17.9246   -2.8139   61.0202 H       1  ZINC001139743874    0.0700
     32 H32       -17.8384   -2.3573   58.5653 H       1  ZINC001139743874    0.0700
     33 H33       -16.2813   -2.0001   57.7806 H       1  ZINC001139743874    0.0600
     34 H34       -16.6251   -3.6447   58.3684 H       1  ZINC001139743874    0.0900
     35 H35       -15.9461   -0.4737   61.1593 H       1  ZINC001139743874    0.0700
     36 H36       -15.8847   -0.1484   59.4104 H       1  ZINC001139743874    0.0700
     37 H37       -17.4420   -0.5056   60.1951 H       1  ZINC001139743874    0.0800
     38 H38       -13.7325   -0.8427   58.5076 H       1  ZINC001139743874    0.0700
     39 H39       -12.3467    0.1716   58.9067 H       1  ZINC001139743874    0.0900
     40 H40       -12.3803   -2.7537   58.0957 H       1  ZINC001139743874    0.0700
     41 H41       -11.4345   -1.4093   57.4108 H       1  ZINC001139743874    0.0800
     42 H42       -10.9746   -2.9479   59.9947 H       1  ZINC001139743874    0.0600
     43 H43        -9.8178   -2.5806   58.7010 H       1  ZINC001139743874    0.0700
     44 H44        -8.3185   -0.2367   60.9688 H       1  ZINC001139743874    0.0700
     45 H45        -8.0854   -1.6670   59.8701 H       1  ZINC001139743874    0.0900
     46 H46        -8.5500    2.0198   59.7066 H       1  ZINC001139743874    0.0600
     47 H47        -7.0709    1.0843   59.3814 H       1  ZINC001139743874    0.0900
     48 H48        -6.3260    3.2417   58.2377 H       1  ZINC001139743874    0.1700
     49 H49        -6.7630    4.6148   53.8290 H       1  ZINC001139743874    0.1500
     50 H50        -8.2801    3.9524   52.0102 H       1  ZINC001139743874    0.1500
     51 H51        -9.9897    2.2266   52.4020 H       1  ZINC001139743874    0.1700
     52 H52        -9.5467    0.8477   56.8076 H       1  ZINC001139743874    0.1400
     53 H53       -10.9727    0.3418   58.4641 H       1  ZINC001139743874    0.1000
     54 H54       -10.4003    1.2116   59.9551 H       1  ZINC001139743874    0.0700
     55 H55       -10.9470   -1.9894   61.7832 H       1  ZINC001139743874    0.0700
     56 H56       -10.1928   -0.4207   62.1169 H       1  ZINC001139743874    0.0800
     57 H57       -12.0541    0.7216   61.1229 H       1  ZINC001139743874    0.0800
     58 H58       -12.6101   -0.3903   62.4005 H       1  ZINC001139743874    0.1000
@<TRIPOS>BOND
     1     1     2    1
     2     1    29    1
     3     1    30    1
     4     1    31    1
     5     2     3    1
     6     2     4    1
     7     2     5    1
     8     3    32    1
     9     3    33    1
    10     3    34    1
    11     4    35    1
    12     4    36    1
    13     4    37    1
    14     5     6    1
    15     6     7    2
    16     6     8   am
    17     8    28    1
    18     8     9    1
    19     9    10    1
    20     9    38    1
    21     9    39    1
    22    10    11    1
    23    10    40    1
    24    10    41    1
    25    11    12    1
    26    11    42    1
    27    11    43    1
    28    12    26    1
    29    12    13    1
    30    12    27    1
    31    13    14    1
    32    13    44    1
    33    13    45    1
    34    14    15    1
    35    14    26    1
    36    15    16    1
    37    15    46    1
    38    15    47    1
    39    16    25   ar
    40    16    17   ar
    41    17    18   ar
    42    17    48    1
    43    18    19   ar
    44    19    24   ar
    45    19    20   ar
    46    20    21   ar
    47    20    49    1
    48    21    22   ar
    49    21    50    1
    50    22    23   ar
    51    22    51    1
    52    23    24   ar
    53    24    25   ar
    54    25    52    1
    55    26    53    1
    56    26    54    1
    57    27    28    1
    58    27    55    1
    59    27    56    1
    60    28    57    1
    61    28    58    1
@<TRIPOS>SUBSTRUCTURE
     1 ZINC001139743874        1 TEMP              0 ****  ****    0 ROOT


##########                                Name:    ZINC000956479608
##########                DOCK_Rotatable_Bonds:                   5
##########                         Heavy_Atoms:                  25
##########                    Molecular_Weight:             345.442
##########                DOCK_Rotatable_Bonds:                   5
##########                       Formal_Charge:          -0.0100001
##########                     HBond_Acceptors:                   6
##########                        HBond_Donors:                   1
##########                         Heavy_Atoms:                  25
##########                          Grid_Score:          -26.487715
##########                     Grid_vdw_energy:          -25.534561
##########                      Grid_es_energy:           -0.953154
##########           Internal_energy_repulsive:           35.927437

@<TRIPOS>MOLECULE
ZINC000956479608
 52 55 1 0 0
SMALL
USER_CHARGES


@<TRIPOS>ATOM
      1 C1          0.3387    6.6994   44.8813 C.3     1  ZINC000956479608   -0.0900
      2 C2          0.8812    5.9494   43.6920 C.2     1  ZINC000956479608   -0.1100
      3 C3          1.3956    4.6820   43.6566 C.2     1  ZINC000956479608   -0.1000
      4 C4          1.5367    3.7504   44.7915 C.2     1  ZINC000956479608    0.6100
      5 O5          2.0149    2.6465   44.6161 O.2     1  ZINC000956479608   -0.5000
      6 N6          1.1354    4.1230   46.0231 N.am    1  ZINC000956479608   -0.7100
      7 C7          1.2739    3.1972   47.1499 C.3     1  ZINC000956479608    0.1800
      8 C8          2.7467    2.8199   47.3217 C.3     1  ZINC000956479608   -0.1700
      9 C9          0.7680    3.8702   48.4279 C.3     1  ZINC000956479608   -0.1500
     10 C10        -0.6968    4.2776   48.2402 C.3     1  ZINC000956479608    0.1100
     11 N11        -1.4684    3.0947   47.8351 N.am    1  ZINC000956479608   -0.6100
     12 C12        -2.5709    2.7271   48.5177 C.2     1  ZINC000956479608    0.5500
     13 O13        -3.1984    1.7477   48.1741 O.2     1  ZINC000956479608   -0.5400
     14 C14        -3.0239    3.5329   49.7078 C.3     1  ZINC000956479608   -0.1900
     15 H15        -3.3602    4.5464   49.4893 H       1  ZINC000956479608    0.1200
     16 C16        -3.7215    2.7878   50.8383 C.3     1  ZINC000956479608   -0.1100
     17 H17        -3.8286    1.7114   50.7045 H       1  ZINC000956479608    0.1000
     18 C18        -4.8669    3.4506   51.5878 C.3     1  ZINC000956479608   -0.0900
     19 C19        -4.4720    4.8587   52.0330 C.3     1  ZINC000956479608   -0.1200
     20 C20        -3.1780    4.7681   52.8499 C.3     1  ZINC000956479608   -0.1200
     21 C21        -2.0140    4.5133   51.8921 C.3     1  ZINC000956479608   -0.0900
     22 C22        -2.3006    3.2966   51.0427 C.3     1  ZINC000956479608   -0.1100
     23 H23        -1.5233    2.5326   51.0432 H       1  ZINC000956479608    0.1100
     24 C24        -1.0156    2.3204   46.6714 C.3     1  ZINC000956479608    0.1000
     25 C25         0.4528    1.9350   46.8766 C.3     1  ZINC000956479608   -0.1400
     26 O26         1.7466    4.4570   42.3763 O.3     1  ZINC000956479608    0.1200
     27 N27         1.5063    5.4133   41.6770 N.2     1  ZINC000956479608   -0.3400
     28 C28         0.9716    6.3886   42.3524 C.2     1  ZINC000956479608   -0.0100
     29 H29        -0.7285    6.5009   44.9801 H       1  ZINC000956479608    0.0800
     30 H30         0.8544    6.3712   45.7838 H       1  ZINC000956479608    0.0900
     31 H31         0.4979    7.7684   44.7402 H       1  ZINC000956479608    0.0800
     32 H32         0.7550    5.0042   46.1633 H       1  ZINC000956479608    0.4100
     33 H33         3.3318    3.7189   47.5158 H       1  ZINC000956479608    0.0800
     34 H34         2.8499    2.1311   48.1600 H       1  ZINC000956479608    0.0700
     35 H35         3.1076    2.3411   46.4114 H       1  ZINC000956479608    0.0600
     36 H36         0.8478    3.1733   49.2622 H       1  ZINC000956479608    0.0800
     37 H37         1.3684    4.7561   48.6347 H       1  ZINC000956479608    0.1000
     38 H38        -1.0909    4.6670   49.1789 H       1  ZINC000956479608    0.0900
     39 H39        -0.7672    5.0423   47.4667 H       1  ZINC000956479608    0.0600
     40 H40        -5.7372    3.5109   50.9343 H       1  ZINC000956479608    0.0700
     41 H41        -5.1167    2.8529   52.4643 H       1  ZINC000956479608    0.0700
     42 H42        -4.3087    5.4871   51.1575 H       1  ZINC000956479608    0.0600
     43 H43        -5.2646    5.2835   52.6489 H       1  ZINC000956479608    0.0700
     44 H44        -3.0152    5.7050   53.3827 H       1  ZINC000956479608    0.0700
     45 H45        -3.2520    3.9468   53.5628 H       1  ZINC000956479608    0.0700
     46 H46        -1.8832    5.3798   51.2440 H       1  ZINC000956479608    0.0700
     47 H47        -1.1017    4.3535   52.4668 H       1  ZINC000956479608    0.0700
     48 H48        -1.6201    1.4186   46.5750 H       1  ZINC000956479608    0.0900
     49 H49        -1.1120    2.9256   45.7700 H       1  ZINC000956479608    0.0700
     50 H50         0.8288    1.4435   45.9794 H       1  ZINC000956479608    0.0900
     51 H51         0.5355    1.2562   47.7256 H       1  ZINC000956479608    0.0900
     52 H52         0.6644    7.3491   41.9659 H       1  ZINC000956479608    0.2000
@<TRIPOS>BOND
     1     1     2    1
     2     1    29    1
     3     1    30    1
     4     1    31    1
     5     2    28    1
     6     2     3    2
     7     3     4    1
     8     3    26    1
     9     4     5    2
    10     4     6   am
    11     6     7    1
    12     6    32    1
    13     7    25    1
    14     7     8    1
    15     7     9    1
    16     8    33    1
    17     8    34    1
    18     8    35    1
    19     9    10    1
    20     9    36    1
    21     9    37    1
    22    10    11    1
    23    10    38    1
    24    10    39    1
    25    11    12   am
    26    11    24    1
    27    12    13    2
    28    12    14    1
    29    14    15    1
    30    14    22    1
    31    14    16    1
    32    16    17    1
    33    16    22    1
    34    16    18    1
    35    18    19    1
    36    18    40    1
    37    18    41    1
    38    19    20    1
    39    19    42    1
    40    19    43    1
    41    20    21    1
    42    20    44    1
    43    20    45    1
    44    21    22    1
    45    21    46    1
    46    21    47    1
    47    22    23    1
    48    24    25    1
    49    24    48    1
    50    24    49    1
    51    25    50    1
    52    25    51    1
    53    26    27    1
    54    27    28    2
    55    28    52    1
@<TRIPOS>SUBSTRUCTURE
     1 ZINC000956479608        1 TEMP              0 ****  ****    0 ROOT


##########                                Name:    ZINC001220171460
##########                DOCK_Rotatable_Bonds:                  10
##########                         Heavy_Atoms:                  25
##########                    Molecular_Weight:             383.773
##########                DOCK_Rotatable_Bonds:                  10
##########                       Formal_Charge:           0.0199996
##########                     HBond_Acceptors:                  10
##########                        HBond_Donors:                   3
##########                         Heavy_Atoms:                  25
##########                          Grid_Score:          -26.464787
##########                     Grid_vdw_energy:          -24.014593
##########                      Grid_es_energy:           -2.450193
##########           Internal_energy_repulsive:            9.124254

@<TRIPOS>MOLECULE
ZINC001220171460
 43 44 1 0 0
SMALL
USER_CHARGES


@<TRIPOS>ATOM
      1 C1         -5.0653    4.2566   53.4681 C.3     1  ZINC001220171460    0.0200
      2 O2         -4.0454    5.0329   52.8364 O.3     1  ZINC001220171460   -0.3100
      3 C3         -3.0328    4.3509   52.2365 C.ar    1  ZINC001220171460    0.1000
      4 C4         -3.1992    3.8447   50.9584 C.ar    1  ZINC001220171460   -0.1500
      5 C5         -2.1686    3.1510   50.3486 C.ar    1  ZINC001220171460   -0.0600
      6 Cl6        -2.3796    2.5180   48.7460 Cl      1  ZINC001220171460   -0.0400
      7 C7         -0.9689    2.9610   51.0146 C.ar    1  ZINC001220171460    0.1000
      8 F8          0.0349    2.2836   50.4158 F       1  ZINC001220171460   -0.1200
      9 C9         -0.7969    3.4647   52.2923 C.ar    1  ZINC001220171460   -0.1200
     10 C10        -1.8247    4.1655   52.9050 C.ar    1  ZINC001220171460    0.1800
     11 N11        -1.6525    4.6765   54.1992 N.am    1  ZINC001220171460   -0.6700
     12 C12        -1.7212    3.8527   55.2636 C.2     1  ZINC001220171460    0.7100
     13 O13        -1.9324    2.6663   55.1016 O.2     1  ZINC001220171460   -0.5700
     14 N14        -1.5556    4.3439   56.5077 N.am    1  ZINC001220171460   -0.7400
     15 C15        -1.6319    3.4487   57.6649 C.3     1  ZINC001220171460    0.1400
     16 C16        -0.3241    2.6647   57.7903 C.3     1  ZINC001220171460   -0.1400
     17 C17        -0.0207    2.4120   59.2685 C.3     1  ZINC001220171460    0.0500
     18 H18        -0.9456    2.4626   59.8430 H       1  ZINC001220171460    0.1000
     19 N19         0.5803    1.0806   59.4244 N.3     1  ZINC001220171460   -0.6500
     20 C20         0.3309    0.5446   60.7692 C.3     1  ZINC001220171460    0.0100
     21 C21         0.0529   -0.9549   60.8917 C.3     1  ZINC001220171460   -0.2000
     22 C22         1.3901   -0.3833   61.3675 C.3     1  ZINC001220171460   -0.1600
     23 C23         0.9548    3.4748   59.7779 C.3     1  ZINC001220171460    0.4600
     24 F24         0.4395    4.7475   59.5103 F       1  ZINC001220171460   -0.1800
     25 F25         1.1307    3.3235   61.1575 F       1  ZINC001220171460   -0.1800
     26 F26         2.1867    3.3252   59.1317 F       1  ZINC001220171460   -0.1700
     27 H27        -5.5429    3.6136   52.7288 H       1  ZINC001220171460    0.0600
     28 H28        -4.6216    3.6422   54.2515 H       1  ZINC001220171460    0.0600
     29 H29        -5.8096    4.9218   53.9059 H       1  ZINC001220171460    0.1100
     30 H30        -4.1338    3.9911   50.4373 H       1  ZINC001220171460    0.1500
     31 H31         0.1390    3.3156   52.8103 H       1  ZINC001220171460    0.1800
     32 H32        -1.4840    5.6230   54.3285 H       1  ZINC001220171460    0.4200
     33 H33        -1.3858    5.2902   56.6369 H       1  ZINC001220171460    0.4000
     34 H34        -1.7914    4.0364   58.5690 H       1  ZINC001220171460    0.0800
     35 H35        -2.4610    2.7536   57.5325 H       1  ZINC001220171460    0.0700
     36 H36        -0.4208    1.7112   57.2712 H       1  ZINC001220171460    0.1000
     37 H37         0.4882    3.2397   57.3458 H       1  ZINC001220171460    0.1000
     38 H38         0.2445    0.4470   58.7146 H       1  ZINC001220171460    0.3600
     39 H39        -0.1965    1.2119   61.4510 H       1  ZINC001220171460    0.1200
     40 H40        -0.6576   -1.2744   61.6540 H       1  ZINC001220171460    0.1000
     41 H41         0.0552   -1.5437   59.9744 H       1  ZINC001220171460    0.1000
     42 H42         2.2719   -0.5962   60.7632 H       1  ZINC001220171460    0.1000
     43 H43         1.5592   -0.3268   62.4427 H       1  ZINC001220171460    0.1000
@<TRIPOS>BOND
     1     1     2    1
     2     1    27    1
     3     1    28    1
     4     1    29    1
     5     2     3    1
     6     3    10   ar
     7     3     4   ar
     8     4     5   ar
     9     4    30    1
    10     5     6    1
    11     5     7   ar
    12     7     8    1
    13     7     9   ar
    14     9    10   ar
    15     9    31    1
    16    10    11    1
    17    11    12   am
    18    11    32    1
    19    12    13    2
    20    12    14   am
    21    14    15    1
    22    14    33    1
    23    15    16    1
    24    15    34    1
    25    15    35    1
    26    16    17    1
    27    16    36    1
    28    16    37    1
    29    17    18    1
    30    17    19    1
    31    17    23    1
    32    19    20    1
    33    19    38    1
    34    20    22    1
    35    20    21    1
    36    20    39    1
    37    21    22    1
    38    21    40    1
    39    21    41    1
    40    22    42    1
    41    22    43    1
    42    23    24    1
    43    23    25    1
    44    23    26    1
@<TRIPOS>SUBSTRUCTURE
     1 ZINC001220171460        1 TEMP              0 ****  ****    0 ROOT


##########                                Name:    ZINC000437443367
##########                DOCK_Rotatable_Bonds:                   8
##########                         Heavy_Atoms:                  24
##########                    Molecular_Weight:             334.434
##########                DOCK_Rotatable_Bonds:                   8
##########                       Formal_Charge:          -0.0500003
##########                     HBond_Acceptors:                   5
##########                        HBond_Donors:                   1
##########                         Heavy_Atoms:                  24
##########                          Grid_Score:          -26.457085
##########                     Grid_vdw_energy:          -23.676689
##########                      Grid_es_energy:           -2.780396
##########           Internal_energy_repulsive:           22.672482

@<TRIPOS>MOLECULE
ZINC000437443367
 51 52 1 0 0
SMALL
USER_CHARGES


@<TRIPOS>ATOM
      1 C1         -2.1040    4.0958   53.3982 C.3     1  ZINC000437443367   -0.1200
      2 C2         -2.1755    3.6958   54.8493 C.ar    1  ZINC000437443367   -0.1000
      3 C3         -1.1101    3.0450   55.4388 C.ar    1  ZINC000437443367   -0.1200
      4 C4         -1.1766    2.6764   56.7767 C.ar    1  ZINC000437443367    0.1400
      5 N5         -0.0987    2.0178   57.3760 N.am    1  ZINC000437443367   -0.6400
      6 C6          1.0061    2.7086   57.7201 C.2     1  ZINC000437443367    0.5000
      7 O7          1.0655    3.9026   57.5099 O.2     1  ZINC000437443367   -0.4800
      8 C8          2.1576    2.0050   58.3602 C.2     1  ZINC000437443367    0.5100
      9 O9          3.1863    1.8353   57.7391 O.2     1  ZINC000437443367   -0.5200
     10 N10         2.0541    1.5585   59.6277 N.am    1  ZINC000437443367   -0.5700
     11 C11         3.1835    0.8682   60.2557 C.3     1  ZINC000437443367    0.0900
     12 C12         3.3212   -0.5332   59.6573 C.3     1  ZINC000437443367   -0.1200
     13 C13         4.7934   -0.9497   59.6677 C.3     1  ZINC000437443367   -0.0900
     14 C14         4.8946   -2.4692   59.5199 C.3     1  ZINC000437443367   -0.1400
     15 C15         5.5226   -0.2744   58.5045 C.3     1  ZINC000437443367   -0.1500
     16 C16         0.8123    1.7634   60.3773 C.3     1  ZINC000437443367    0.1300
     17 C17         0.1218    0.4084   60.6364 C.3     1  ZINC000437443367   -0.1300
     18 C18         0.5942    0.0066   62.0557 C.3     1  ZINC000437443367   -0.1300
     19 C19         0.6110    1.3612   62.8066 C.3     1  ZINC000437443367   -0.1200
     20 C20         1.1234    2.3692   61.7572 C.3     1  ZINC000437443367   -0.1400
     21 C21        -2.3154    2.9637   57.5183 C.ar    1  ZINC000437443367   -0.1100
     22 C22        -3.3788    3.6148   56.9244 C.ar    1  ZINC000437443367   -0.1300
     23 C23        -3.3080    3.9863   55.5922 C.ar    1  ZINC000437443367    0.0800
     24 F24        -4.3493    4.6231   55.0133 F       1  ZINC000437443367   -0.1400
     25 H25        -1.6782    5.0959   53.3175 H       1  ZINC000437443367    0.0800
     26 H26        -1.4754    3.3887   52.8570 H       1  ZINC000437443367    0.0700
     27 H27        -3.1065    4.0922   52.9704 H       1  ZINC000437443367    0.0700
     28 H28        -0.2257    2.8223   54.8603 H       1  ZINC000437443367    0.1400
     29 H29        -0.1462    1.0637   57.5441 H       1  ZINC000437443367    0.4200
     30 H30         4.0990    1.4316   60.0759 H       1  ZINC000437443367    0.0900
     31 H31         3.0099    0.7896   61.3289 H       1  ZINC000437443367    0.1000
     32 H32         2.7395   -1.2398   60.2493 H       1  ZINC000437443367    0.0700
     33 H33         2.9522   -0.5282   58.6317 H       1  ZINC000437443367    0.0600
     34 H34         5.2505   -0.6450   60.6091 H       1  ZINC000437443367    0.0600
     35 H35         4.4374   -2.7738   58.5785 H       1  ZINC000437443367    0.0600
     36 H36         5.9434   -2.7659   59.5273 H       1  ZINC000437443367    0.0400
     37 H37         4.3751   -2.9502   60.3487 H       1  ZINC000437443367    0.0600
     38 H38         5.4505    0.8081   58.6097 H       1  ZINC000437443367    0.0500
     39 H39         6.5714   -0.5711   58.5118 H       1  ZINC000437443367    0.0500
     40 H40         5.0655   -0.5791   57.5631 H       1  ZINC000437443367    0.0500
     41 H41         0.1455    2.4228   59.8217 H       1  ZINC000437443367    0.1000
     42 H42        -0.9620    0.5219   60.6131 H       1  ZINC000437443367    0.0800
     43 H43         0.4448   -0.3307   59.9033 H       1  ZINC000437443367    0.0700
     44 H44        -0.1129   -0.6823   62.5177 H       1  ZINC000437443367    0.0700
     45 H45         1.5930   -0.4286   62.0216 H       1  ZINC000437443367    0.0700
     46 H46        -0.3938    1.6287   63.1337 H       1  ZINC000437443367    0.0700
     47 H47         1.2911    1.3175   63.6573 H       1  ZINC000437443367    0.0700
     48 H48         2.1983    2.5108   61.8691 H       1  ZINC000437443367    0.0800
     49 H49         0.6069    3.3223   61.8715 H       1  ZINC000437443367    0.0700
     50 H50        -2.3694    2.6779   58.5583 H       1  ZINC000437443367    0.1600
     51 H51        -4.2645    3.8385   57.5005 H       1  ZINC000437443367    0.1400
@<TRIPOS>BOND
     1     1     2    1
     2     1    25    1
     3     1    26    1
     4     1    27    1
     5     2    23   ar
     6     2     3   ar
     7     3     4   ar
     8     3    28    1
     9     4     5    1
    10     4    21   ar
    11     5     6   am
    12     5    29    1
    13     6     7    2
    14     6     8    1
    15     8     9    2
    16     8    10   am
    17    10    11    1
    18    10    16    1
    19    11    12    1
    20    11    30    1
    21    11    31    1
    22    12    13    1
    23    12    32    1
    24    12    33    1
    25    13    14    1
    26    13    15    1
    27    13    34    1
    28    14    35    1
    29    14    36    1
    30    14    37    1
    31    15    38    1
    32    15    39    1
    33    15    40    1
    34    16    20    1
    35    16    17    1
    36    16    41    1
    37    17    18    1
    38    17    42    1
    39    17    43    1
    40    18    19    1
    41    18    44    1
    42    18    45    1
    43    19    20    1
    44    19    46    1
    45    19    47    1
    46    20    48    1
    47    20    49    1
    48    21    22   ar
    49    21    50    1
    50    22    23   ar
    51    22    51    1
    52    23    24    1
@<TRIPOS>SUBSTRUCTURE
     1 ZINC000437443367        1 TEMP              0 ****  ****    0 ROOT


##########                                Name:    ZINC001082278299
##########                DOCK_Rotatable_Bonds:                   9
##########                         Heavy_Atoms:                  25
##########                    Molecular_Weight:              346.47
##########                DOCK_Rotatable_Bonds:                   9
##########                       Formal_Charge:           0.0200001
##########                     HBond_Acceptors:                   5
##########                        HBond_Donors:                   1
##########                         Heavy_Atoms:                  25
##########                          Grid_Score:          -26.443071
##########                     Grid_vdw_energy:          -25.642332
##########                      Grid_es_energy:           -0.800740
##########           Internal_energy_repulsive:           88.679268

@<TRIPOS>MOLECULE
ZINC001082278299
 55 57 1 0 0
SMALL
USER_CHARGES


@<TRIPOS>ATOM
      1 C1         -9.7726    0.5918   53.4669 C.3     1  ZINC001082278299   -0.1300
      2 C2         -8.7019    1.1277   52.5518 C.2     1  ZINC001082278299    0.0000
      3 C3         -7.6247    0.3940   52.2872 C.2     1  ZINC001082278299   -0.2300
      4 C4         -6.5796    0.9170   51.3939 C.2     1  ZINC001082278299    0.5400
      5 O5         -6.5600    0.5883   50.2232 O.2     1  ZINC001082278299   -0.5300
      6 N6         -5.6439    1.7605   51.8728 N.am    1  ZINC001082278299   -0.7400
      7 C7         -4.6020    2.2800   50.9835 C.3     1  ZINC001082278299    0.1300
      8 C8         -3.8061    3.3658   51.7102 C.3     1  ZINC001082278299    0.1400
      9 H9         -3.2548    2.9219   52.5391 H       1  ZINC001082278299    0.0800
     10 C10        -4.7648    4.4344   52.2449 C.3     1  ZINC001082278299   -0.1300
     11 C11        -3.9552    5.5849   52.8474 C.3     1  ZINC001082278299   -0.1200
     12 C12        -3.0816    6.2191   51.7627 C.3     1  ZINC001082278299   -0.1400
     13 C13        -2.1038    5.1708   51.2226 C.3     1  ZINC001082278299    0.1100
     14 N14        -2.8650    3.9964   50.7744 N.am    1  ZINC001082278299   -0.6100
     15 C15        -2.7067    3.5104   49.5273 C.2     1  ZINC001082278299    0.5100
     16 O16        -3.3407    2.5405   49.1694 O.2     1  ZINC001082278299   -0.5100
     17 C17        -1.7418    4.1722   48.5776 C.3     1  ZINC001082278299   -0.1100
     18 C18        -0.3291    3.8996   49.0260 C.2     1  ZINC001082278299   -0.0900
     19 C19         0.5778    4.8082   48.8218 C.2     1  ZINC001082278299   -0.1800
     20 C20         2.0147    4.6304   49.2225 C.3     1  ZINC001082278299    0.0900
     21 O21         2.1382    3.5425   50.1408 O.3     1  ZINC001082278299   -0.3800
     22 C22         1.4902    2.3483   49.6853 C.3     1  ZINC001082278299    0.0600
     23 C23        -0.0236    2.5895   49.6980 C.3     1  ZINC001082278299   -0.1100
     24 C24        -8.8518    2.4951   51.9364 C.3     1  ZINC001082278299   -0.1200
     25 C25       -10.2184    2.8618   51.3541 C.3     1  ZINC001082278299   -0.1900
     26 C26        -9.7471    3.5019   52.6615 C.3     1  ZINC001082278299   -0.1500
     27 H27        -9.5492    0.8786   54.4945 H       1  ZINC001082278299    0.0800
     28 H28       -10.7388    1.0044   53.1765 H       1  ZINC001082278299    0.0800
     29 H29        -9.8042   -0.4952   53.3917 H       1  ZINC001082278299    0.0700
     30 H30        -7.5173   -0.5860   52.7283 H       1  ZINC001082278299    0.1300
     31 H31        -5.6602    2.0235   52.8063 H       1  ZINC001082278299    0.3900
     32 H32        -3.9322    1.4695   50.6962 H       1  ZINC001082278299    0.0900
     33 H33        -5.0636    2.7034   50.0915 H       1  ZINC001082278299    0.0800
     34 H34        -5.3810    4.8115   51.4287 H       1  ZINC001082278299    0.0700
     35 H35        -5.4041    3.9983   53.0125 H       1  ZINC001082278299    0.0800
     36 H36        -4.6354    6.3353   53.2507 H       1  ZINC001082278299    0.0700
     37 H37        -3.3209    5.2028   53.6472 H       1  ZINC001082278299    0.0700
     38 H38        -3.7136    6.5795   50.9511 H       1  ZINC001082278299    0.0700
     39 H39        -2.5229    7.0533   52.1871 H       1  ZINC001082278299    0.0800
     40 H40        -1.5476    5.5881   50.3832 H       1  ZINC001082278299    0.0900
     41 H41        -1.4118    4.8759   52.0115 H       1  ZINC001082278299    0.0700
     42 H42        -1.8880    3.7726   47.5741 H       1  ZINC001082278299    0.1000
     43 H43        -1.9195    5.2476   48.5699 H       1  ZINC001082278299    0.1000
     44 H44         0.2856    5.7311   48.3428 H       1  ZINC001082278299    0.1100
     45 H45         2.6143    4.4247   48.3357 H       1  ZINC001082278299    0.0600
     46 H46         2.3739    5.5446   49.6950 H       1  ZINC001082278299    0.1000
     47 H47         1.8202    2.1148   48.6730 H       1  ZINC001082278299    0.0600
     48 H48         1.7346    1.5210   50.3515 H       1  ZINC001082278299    0.1000
     49 H49        -0.3790    2.6112   50.7282 H       1  ZINC001082278299    0.0800
     50 H50        -0.5238    1.7850   49.1587 H       1  ZINC001082278299    0.0800
     51 H51        -7.9680    2.8818   51.4289 H       1  ZINC001082278299    0.1300
     52 H52       -10.2338    3.4897   50.4633 H       1  ZINC001082278299    0.1000
     53 H53       -11.0090    2.1140   51.4162 H       1  ZINC001082278299    0.1000
     54 H54       -10.2277    3.1751   53.5837 H       1  ZINC001082278299    0.0900
     55 H55        -9.4526    4.5508   52.6307 H       1  ZINC001082278299    0.1000
@<TRIPOS>BOND
     1     1     2    1
     2     1    27    1
     3     1    28    1
     4     1    29    1
     5     2     3    2
     6     2    24    1
     7     3     4    1
     8     3    30    1
     9     4     5    2
    10     4     6   am
    11     6     7    1
    12     6    31    1
    13     7     8    1
    14     7    32    1
    15     7    33    1
    16     8     9    1
    17     8    14    1
    18     8    10    1
    19    10    11    1
    20    10    34    1
    21    10    35    1
    22    11    12    1
    23    11    36    1
    24    11    37    1
    25    12    13    1
    26    12    38    1
    27    12    39    1
    28    13    14    1
    29    13    40    1
    30    13    41    1
    31    14    15   am
    32    15    16    2
    33    15    17    1
    34    17    18    1
    35    17    42    1
    36    17    43    1
    37    18    23    1
    38    18    19    2
    39    19    20    1
    40    19    44    1
    41    20    21    1
    42    20    45    1
    43    20    46    1
    44    21    22    1
    45    22    23    1
    46    22    47    1
    47    22    48    1
    48    23    49    1
    49    23    50    1
    50    24    26    1
    51    24    25    1
    52    24    51    1
    53    25    26    1
    54    25    52    1
    55    25    53    1
    56    26    54    1
    57    26    55    1
@<TRIPOS>SUBSTRUCTURE
     1 ZINC001082278299        1 TEMP              0 ****  ****    0 ROOT


##########                                Name:    ZINC000494558165
##########                DOCK_Rotatable_Bonds:                  11
##########                         Heavy_Atoms:                  28
##########                    Molecular_Weight:             409.506
##########                DOCK_Rotatable_Bonds:                  11
##########                       Formal_Charge:        -6.55651e-07
##########                     HBond_Acceptors:                   9
##########                        HBond_Donors:                   3
##########                         Heavy_Atoms:                  28
##########                          Grid_Score:          -26.420662
##########                     Grid_vdw_energy:          -24.652172
##########                      Grid_es_energy:           -1.768490
##########           Internal_energy_repulsive:           32.348461

@<TRIPOS>MOLECULE
ZINC000494558165
 55 57 1 0 0
SMALL
USER_CHARGES


@<TRIPOS>ATOM
      1 O1         -0.7765    6.3380   54.4423 O.2     1  ZINC000494558165   -0.4400
      2 C2         -1.1928    5.2665   54.0571 C.2     1  ZINC000494558165    0.5100
      3 C3         -1.8441    5.1538   52.7028 C.3     1  ZINC000494558165    0.0300
      4 N4         -3.2676    4.8315   52.8695 N.3     1  ZINC000494558165   -0.5000
      5 C5         -3.8896    5.7001   53.8778 C.3     1  ZINC000494558165    0.0500
      6 C6         -4.3294    4.8566   55.0761 C.3     1  ZINC000494558165   -0.1100
      7 C7         -5.6900    5.3482   55.5738 C.3     1  ZINC000494558165    0.0800
      8 O8         -6.4215    4.2503   56.1229 O.3     1  ZINC000494558165   -0.5700
      9 C9         -3.9805    4.9181   51.5879 C.3     1  ZINC000494558165    0.1200
     10 H10        -4.3107    5.9413   51.4081 H       1  ZINC000494558165    0.1000
     11 C11        -5.1878    3.9566   51.5806 C.3     1  ZINC000494558165   -0.1200
     12 C12        -4.5893    2.6779   50.9567 C.3     1  ZINC000494558165   -0.0900
     13 C13        -3.4403    3.1576   50.0961 C.ar    1  ZINC000494558165   -0.0900
     14 C14        -2.7549    2.5184   49.0768 C.ar    1  ZINC000494558165   -0.1100
     15 C15        -1.7234    3.1630   48.4219 C.ar    1  ZINC000494558165   -0.1100
     16 C16        -1.3737    4.4500   48.7845 C.ar    1  ZINC000494558165   -0.1200
     17 C17        -2.0563    5.0894   49.8012 C.ar    1  ZINC000494558165   -0.1000
     18 C18        -3.0895    4.4475   50.4584 C.ar    1  ZINC000494558165   -0.1300
     19 N19        -1.0678    4.1749   54.8377 N.am    1  ZINC000494558165   -0.6900
     20 C20        -0.4852    4.2757   56.0489 C.2     1  ZINC000494558165    0.7000
     21 O21        -0.0711    5.3505   56.4365 O.2     1  ZINC000494558165   -0.5200
     22 N22        -0.3617    3.1844   56.8302 N.am    1  ZINC000494558165   -0.7300
     23 C23         0.2699    3.2943   58.1474 C.3     1  ZINC000494558165    0.1700
     24 H24         1.1277    3.9642   58.0877 H       1  ZINC000494558165    0.1200
     25 C25        -0.7459    3.8439   59.1642 C.3     1  ZINC000494558165   -0.1400
     26 C26        -0.1309    3.6221   60.5701 C.3     1  ZINC000494558165   -0.5800
     27 S27         0.5663    1.9322   60.4382 S.o2    1  ZINC000494558165    2.4000
     28 O28         1.8574    1.9078   61.0312 O.2     1  ZINC000494558165   -0.9300
     29 O29        -0.4146    0.9854   60.8390 O.2     1  ZINC000494558165   -0.9300
     30 C30         0.7322    1.9011   58.6185 C.3     1  ZINC000494558165   -0.6200
     31 H31        -1.7458    6.1009   52.1724 H       1  ZINC000494558165    0.0700
     32 H32        -1.3575    4.3643   52.1302 H       1  ZINC000494558165    0.1200
     33 H33        -3.1694    6.4496   54.2057 H       1  ZINC000494558165    0.0900
     34 H34        -4.7581    6.1960   53.4442 H       1  ZINC000494558165    0.0400
     35 H35        -4.4082    3.8117   54.7757 H       1  ZINC000494558165    0.0700
     36 H36        -3.5945    4.9503   55.8756 H       1  ZINC000494558165    0.0800
     37 H37        -5.5433    6.1075   56.3421 H       1  ZINC000494558165    0.0500
     38 H38        -6.2483    5.7766   54.7414 H       1  ZINC000494558165    0.0400
     39 H39        -6.0702    3.9243   56.9628 H       1  ZINC000494558165    0.3800
     40 H40        -5.5372    3.7656   52.5952 H       1  ZINC000494558165    0.0900
     41 H41        -5.9928    4.3503   50.9600 H       1  ZINC000494558165    0.0800
     42 H42        -4.2242    2.0112   51.7378 H       1  ZINC000494558165    0.0800
     43 H43        -5.3350    2.1714   50.3441 H       1  ZINC000494558165    0.0800
     44 H44        -3.0274    1.5126   48.7931 H       1  ZINC000494558165    0.1200
     45 H45        -1.1910    2.6618   47.6270 H       1  ZINC000494558165    0.1300
     46 H46        -0.5672    4.9552   48.2738 H       1  ZINC000494558165    0.1200
     47 H47        -1.7822    6.0949   50.0842 H       1  ZINC000494558165    0.1200
     48 H48        -1.3971    3.3167   54.5279 H       1  ZINC000494558165    0.4100
     49 H49        -0.6911    2.3263   56.5203 H       1  ZINC000494558165    0.4000
     50 H50        -0.9086    4.9079   58.9914 H       1  ZINC000494558165    0.1100
     51 H51        -1.6886    3.3032   59.0795 H       1  ZINC000494558165    0.0900
     52 H52         0.6554    4.3507   60.7676 H       1  ZINC000494558165    0.1400
     53 H53        -0.9010    3.6639   61.3402 H       1  ZINC000494558165    0.1400
     54 H54         0.0949    1.1256   58.1936 H       1  ZINC000494558165    0.1500
     55 H55         1.7717    1.7348   58.3360 H       1  ZINC000494558165    0.1500
@<TRIPOS>BOND
     1     1     2    2
     2     2     3    1
     3     2    19   am
     4     3     4    1
     5     3    31    1
     6     3    32    1
     7     4     5    1
     8     4     9    1
     9     5     6    1
    10     5    33    1
    11     5    34    1
    12     6     7    1
    13     6    35    1
    14     6    36    1
    15     7     8    1
    16     7    37    1
    17     7    38    1
    18     8    39    1
    19     9    10    1
    20     9    18    1
    21     9    11    1
    22    11    12    1
    23    11    40    1
    24    11    41    1
    25    12    13    1
    26    12    42    1
    27    12    43    1
    28    13    18   ar
    29    13    14   ar
    30    14    15   ar
    31    14    44    1
    32    15    16   ar
    33    15    45    1
    34    16    17   ar
    35    16    46    1
    36    17    18   ar
    37    17    47    1
    38    19    20   am
    39    19    48    1
    40    20    21    2
    41    20    22   am
    42    22    23    1
    43    22    49    1
    44    23    24    1
    45    23    30    1
    46    23    25    1
    47    25    26    1
    48    25    50    1
    49    25    51    1
    50    26    27    1
    51    26    52    1
    52    26    53    1
    53    27    28    2
    54    27    29    2
    55    27    30    1
    56    30    54    1
    57    30    55    1
@<TRIPOS>SUBSTRUCTURE
     1 ZINC000494558165        1 TEMP              0 ****  ****    0 ROOT


##########                                Name:    ZINC000883773972
##########                DOCK_Rotatable_Bonds:                   4
##########                         Heavy_Atoms:                  23
##########                    Molecular_Weight:             343.447
##########                DOCK_Rotatable_Bonds:                   4
##########                       Formal_Charge:                0.01
##########                     HBond_Acceptors:                   8
##########                        HBond_Donors:                   1
##########                         Heavy_Atoms:                  23
##########                          Grid_Score:          -26.387417
##########                     Grid_vdw_energy:          -25.487652
##########                      Grid_es_energy:           -0.899766
##########           Internal_energy_repulsive:            4.919497

@<TRIPOS>MOLECULE
ZINC000883773972
 48 50 1 0 0
SMALL
USER_CHARGES


@<TRIPOS>ATOM
      1 C1        -14.2926   -4.9404   56.5242 C.3     1  ZINC000883773972   -0.1700
      2 C2        -14.8079   -3.7339   55.7825 C.2     1  ZINC000883773972    0.5300
      3 O3        -16.0022   -3.5599   55.6630 O.2     1  ZINC000883773972   -0.5400
      4 N4        -13.9414   -2.8483   55.2519 N.am    1  ZINC000883773972   -0.6200
      5 C5        -14.2798   -1.6244   54.5071 C.3     1  ZINC000883773972    0.1100
      6 C6        -13.1577   -0.6145   54.7999 C.3     1  ZINC000883773972   -0.1100
      7 H7        -13.4693    0.1404   55.5217 H       1  ZINC000883773972    0.1000
      8 C8        -12.6831    0.0166   53.4801 C.3     1  ZINC000883773972    0.1300
      9 N9        -11.2133   -0.0649   53.4861 N.am    1  ZINC000883773972   -0.6400
     10 C10       -10.3562    0.8023   52.9116 C.2     1  ZINC000883773972    0.7300
     11 O11       -10.7818    1.7703   52.3114 O.2     1  ZINC000883773972   -0.5800
     12 N12        -9.0274    0.5964   53.0025 N.am    1  ZINC000883773972   -0.7400
     13 C13        -8.0958    1.5381   52.3766 C.3     1  ZINC000883773972    0.1800
     14 H14        -8.5643    1.9797   51.4970 H       1  ZINC000883773972    0.1100
     15 C15        -7.7455    2.6408   53.3714 C.3     1  ZINC000883773972   -0.1500
     16 C16        -6.9821    3.7666   52.6798 C.3     1  ZINC000883773972   -0.1000
     17 C17        -5.5808    3.2879   52.2934 C.3     1  ZINC000883773972   -0.5600
     18 H18        -5.0628    2.9224   53.1801 H       1  ZINC000883773972    0.1400
     19 C19        -4.7936    4.4489   51.6825 C.3     1  ZINC000883773972   -0.1400
     20 S20        -5.7287    1.9449   51.0790 S.o2    1  ZINC000883773972    2.4200
     21 O21        -6.4082    2.4403   49.9335 O.2     1  ZINC000883773972   -0.9200
     22 O22        -4.4564    1.3319   50.9218 O.2     1  ZINC000883773972   -0.9300
     23 C23        -6.8267    0.7934   51.9561 C.3     1  ZINC000883773972   -0.6300
     24 C24       -10.8624   -1.2785   54.2419 C.3     1  ZINC000883773972    0.1100
     25 C25       -11.9716   -1.4615   55.3231 C.3     1  ZINC000883773972   -0.1100
     26 H26       -11.6301   -1.1531   56.3111 H       1  ZINC000883773972    0.1000
     27 C27       -12.4719   -2.9127   55.3094 C.3     1  ZINC000883773972    0.1100
     28 H28       -15.1341   -5.5359   56.8783 H       1  ZINC000883773972    0.0900
     29 H29       -13.6772   -5.5424   55.8557 H       1  ZINC000883773972    0.0900
     30 H30       -13.6940   -4.6154   57.3752 H       1  ZINC000883773972    0.0900
     31 H31       -14.3231   -1.8364   53.4388 H       1  ZINC000883773972    0.0800
     32 H32       -15.2366   -1.2303   54.8499 H       1  ZINC000883773972    0.0900
     33 H33       -13.0853   -0.5399   52.6335 H       1  ZINC000883773972    0.0700
     34 H34       -13.0000    1.0582   53.4283 H       1  ZINC000883773972    0.0900
     35 H35        -8.6878   -0.1751   53.4824 H       1  ZINC000883773972    0.4000
     36 H36        -8.6634    3.0409   53.8020 H       1  ZINC000883773972    0.0900
     37 H37        -7.1281    2.2239   54.1671 H       1  ZINC000883773972    0.0800
     38 H38        -7.5208    4.0709   51.7825 H       1  ZINC000883773972    0.0900
     39 H39        -6.9000    4.6170   53.3567 H       1  ZINC000883773972    0.0900
     40 H40        -4.7131    5.2561   52.4105 H       1  ZINC000883773972    0.0800
     41 H41        -3.7959    4.1066   51.4077 H       1  ZINC000883773972    0.0700
     42 H42        -5.3110    4.8110   50.7940 H       1  ZINC000883773972    0.0800
     43 H43        -6.3187    0.4064   52.8396 H       1  ZINC000883773972    0.1400
     44 H44        -7.0924   -0.0320   51.2957 H       1  ZINC000883773972    0.1400
     45 H45       -10.8354   -2.1400   53.5749 H       1  ZINC000883773972    0.0800
     46 H46        -9.8949   -1.1501   54.7274 H       1  ZINC000883773972    0.0800
     47 H47       -12.1363   -3.4325   56.2068 H       1  ZINC000883773972    0.0900
     48 H48       -12.1062   -3.4261   54.4202 H       1  ZINC000883773972    0.0700
@<TRIPOS>BOND
     1     1     2    1
     2     1    28    1
     3     1    29    1
     4     1    30    1
     5     2     3    2
     6     2     4   am
     7     4    27    1
     8     4     5    1
     9     5     6    1
    10     5    31    1
    11     5    32    1
    12     6     7    1
    13     6    25    1
    14     6     8    1
    15     8     9    1
    16     8    33    1
    17     8    34    1
    18     9    10   am
    19     9    24    1
    20    10    11    2
    21    10    12   am
    22    12    13    1
    23    12    35    1
    24    13    14    1
    25    13    23    1
    26    13    15    1
    27    15    16    1
    28    15    36    1
    29    15    37    1
    30    16    17    1
    31    16    38    1
    32    16    39    1
    33    17    18    1
    34    17    19    1
    35    17    20    1
    36    19    40    1
    37    19    41    1
    38    19    42    1
    39    20    21    2
    40    20    22    2
    41    20    23    1
    42    23    43    1
    43    23    44    1
    44    24    25    1
    45    24    45    1
    46    24    46    1
    47    25    26    1
    48    25    27    1
    49    27    47    1
    50    27    48    1
@<TRIPOS>SUBSTRUCTURE
     1 ZINC000883773972        1 TEMP              0 ****  ****    0 ROOT


##########                                Name:    ZINC000455156110
##########                DOCK_Rotatable_Bonds:                   4
##########                         Heavy_Atoms:                  27
##########                    Molecular_Weight:             370.424
##########                DOCK_Rotatable_Bonds:                   4
##########                       Formal_Charge:           0.0100002
##########                     HBond_Acceptors:                   6
##########                        HBond_Donors:                   1
##########                         Heavy_Atoms:                  27
##########                          Grid_Score:          -26.378452
##########                     Grid_vdw_energy:          -25.619404
##########                      Grid_es_energy:           -0.759048
##########           Internal_energy_repulsive:           44.278156

@<TRIPOS>MOLECULE
ZINC000455156110
 50 53 1 0 0
SMALL
USER_CHARGES


@<TRIPOS>ATOM
      1 C1          1.0155    1.6869   46.1989 C.3     1  ZINC000455156110    0.0300
      2 O2          1.2496    2.0518   47.5606 O.3     1  ZINC000455156110   -0.3100
      3 C3          0.1635    2.3983   48.3026 C.ar    1  ZINC000455156110    0.0900
      4 C4          0.3200    2.7676   49.6293 C.ar    1  ZINC000455156110   -0.1600
      5 C5         -0.7827    3.1199   50.3839 C.ar    1  ZINC000455156110   -0.0800
      6 C6         -0.6112    3.5207   51.8265 C.3     1  ZINC000455156110   -0.1100
      7 C7         -2.0480    3.1050   49.8137 C.ar    1  ZINC000455156110    0.1500
      8 N8         -3.1659    3.4632   50.5791 N.am    1  ZINC000455156110   -0.6700
      9 C9         -4.1468    2.5658   50.8001 C.2     1  ZINC000455156110    0.7200
     10 O10        -4.0619    1.4454   50.3354 O.2     1  ZINC000455156110   -0.5500
     11 N11        -5.2220    2.9103   51.5362 N.am    1  ZINC000455156110   -0.5600
     12 C12        -5.4395    4.2282   52.1417 C.3     1  ZINC000455156110    0.1000
     13 C13        -6.7873    4.1159   52.8644 C.3     1  ZINC000455156110   -0.0200
     14 C14        -6.6075    4.3597   54.3610 C.3     1  ZINC000455156110   -0.1400
     15 C15        -6.1803    5.8135   54.5861 C.3     1  ZINC000455156110    0.0600
     16 O16        -7.1519    6.6879   54.0084 O.3     1  ZINC000455156110   -0.3800
     17 C17        -7.3075    6.5391   52.5956 C.3     1  ZINC000455156110    0.0600
     18 C18        -7.7839    5.1169   52.2842 C.3     1  ZINC000455156110   -0.1400
     19 C19        -7.2501    2.7032   52.6110 C.ar    1  ZINC000455156110   -0.1300
     20 C20        -8.3887    2.0314   53.0122 C.ar    1  ZINC000455156110   -0.0700
     21 C21        -8.5857    0.7139   52.6418 C.ar    1  ZINC000455156110   -0.1400
     22 C22        -7.6396    0.0680   51.8677 C.ar    1  ZINC000455156110   -0.0900
     23 C23        -6.5011    0.7337   51.4654 C.ar    1  ZINC000455156110   -0.1300
     24 C24        -6.2974    2.0652   51.8301 C.ar    1  ZINC000455156110    0.1600
     25 C25        -2.2059    2.7356   48.4844 C.ar    1  ZINC000455156110   -0.1200
     26 C26        -1.1019    2.3876   47.7288 C.ar    1  ZINC000455156110    0.0900
     27 F27        -1.2543    2.0285   46.4353 F       1  ZINC000455156110   -0.1300
     28 H28         1.9627    1.4342   45.7224 H       1  ZINC000455156110    0.1000
     29 H29         0.3493    0.8249   46.1632 H       1  ZINC000455156110    0.0600
     30 H30         0.5558    2.5234   45.6725 H       1  ZINC000455156110    0.0600
     31 H31         1.3043    2.7797   50.0736 H       1  ZINC000455156110    0.1400
     32 H32        -0.4527    4.5974   51.8881 H       1  ZINC000455156110    0.0800
     33 H33        -1.5069    3.2526   52.3870 H       1  ZINC000455156110    0.0600
     34 H34         0.2499    3.0020   52.2479 H       1  ZINC000455156110    0.0800
     35 H35        -3.2336    4.3569   50.9499 H       1  ZINC000455156110    0.4100
     36 H36        -4.6455    4.4536   52.8537 H       1  ZINC000455156110    0.0800
     37 H37        -5.4865    4.9964   51.3699 H       1  ZINC000455156110    0.0900
     38 H38        -7.5498    4.1731   54.8762 H       1  ZINC000455156110    0.0800
     39 H39        -5.8402    3.6902   54.7495 H       1  ZINC000455156110    0.0800
     40 H40        -6.1054    6.0091   55.6557 H       1  ZINC000455156110    0.1000
     41 H41        -5.2118    5.9847   54.1161 H       1  ZINC000455156110    0.0500
     42 H42        -8.0435    7.2567   52.2332 H       1  ZINC000455156110    0.1000
     43 H43        -6.3515    6.7182   52.1035 H       1  ZINC000455156110    0.0500
     44 H44        -7.8483    4.9825   51.2044 H       1  ZINC000455156110    0.0800
     45 H45        -8.7647    4.9552   52.7314 H       1  ZINC000455156110    0.0800
     46 H46        -9.1269    2.5366   53.6172 H       1  ZINC000455156110    0.1300
     47 H47        -9.4763    0.1906   52.9567 H       1  ZINC000455156110    0.1300
     48 H48        -7.7926   -0.9610   51.5776 H       1  ZINC000455156110    0.1300
     49 H49        -5.7655    0.2234   50.8613 H       1  ZINC000455156110    0.1400
     50 H50        -3.1901    2.7239   48.0401 H       1  ZINC000455156110    0.1700
@<TRIPOS>BOND
     1     1     2    1
     2     1    28    1
     3     1    29    1
     4     1    30    1
     5     2     3    1
     6     3    26   ar
     7     3     4   ar
     8     4     5   ar
     9     4    31    1
    10     5     6    1
    11     5     7   ar
    12     6    32    1
    13     6    33    1
    14     6    34    1
    15     7     8    1
    16     7    25   ar
    17     8     9   am
    18     8    35    1
    19     9    10    2
    20     9    11   am
    21    11    24    1
    22    11    12    1
    23    12    13    1
    24    12    36    1
    25    12    37    1
    26    13    18    1
    27    13    14    1
    28    13    19    1
    29    14    15    1
    30    14    38    1
    31    14    39    1
    32    15    16    1
    33    15    40    1
    34    15    41    1
    35    16    17    1
    36    17    18    1
    37    17    42    1
    38    17    43    1
    39    18    44    1
    40    18    45    1
    41    19    24   ar
    42    19    20   ar
    43    20    21   ar
    44    20    46    1
    45    21    22   ar
    46    21    47    1
    47    22    23   ar
    48    22    48    1
    49    23    24   ar
    50    23    49    1
    51    25    26   ar
    52    25    50    1
    53    26    27    1
@<TRIPOS>SUBSTRUCTURE
     1 ZINC000455156110        1 TEMP              0 ****  ****    0 ROOT


##########                                Name:    ZINC000464706598
##########                DOCK_Rotatable_Bonds:                   4
##########                         Heavy_Atoms:                  26
##########                    Molecular_Weight:             412.286
##########                DOCK_Rotatable_Bonds:                   4
##########                       Formal_Charge:           0.0100001
##########                     HBond_Acceptors:                   5
##########                        HBond_Donors:                   0
##########                         Heavy_Atoms:                  26
##########                          Grid_Score:          -26.369473
##########                     Grid_vdw_energy:          -25.805655
##########                      Grid_es_energy:           -0.563817
##########           Internal_energy_repulsive:           57.708958

@<TRIPOS>MOLECULE
ZINC000464706598
 44 47 1 0 0
SMALL
USER_CHARGES


@<TRIPOS>ATOM
      1 O1         -2.4819    3.0306   49.5476 O.2     1  ZINC000464706598   -0.5000
      2 C2         -2.8688    3.2334   50.6825 C.2     1  ZINC000464706598    0.5900
      3 C3         -4.3110    3.2040   50.9860 C.2     1  ZINC000464706598   -0.2800
      4 C4         -5.0653    2.0838   51.2732 C.2     1  ZINC000464706598    0.1300
      5 N5         -6.3283    2.4943   51.4890 N.pl3   1  ZINC000464706598   -0.3100
      6 C6         -7.4143    1.6689   51.8116 C.ar    1  ZINC000464706598    0.1700
      7 C7         -7.2233    0.3047   51.9858 C.ar    1  ZINC000464706598   -0.1300
      8 C8         -8.2949   -0.5063   52.3041 C.ar    1  ZINC000464706598   -0.0600
      9 C9         -9.5581    0.0394   52.4489 C.ar    1  ZINC000464706598   -0.1000
     10 Br10      -11.0232   -1.0741   52.8842 Br      1  ZINC000464706598   -0.0400
     11 C11        -9.7510    1.3987   52.2764 C.ar    1  ZINC000464706598   -0.0700
     12 C12        -8.6818    2.2148   51.9631 C.ar    1  ZINC000464706598   -0.1100
     13 N13        -6.3742    3.8847   51.3374 N.2     1  ZINC000464706598   -0.2800
     14 C14        -5.1790    4.3178   51.0435 C.2     1  ZINC000464706598    0.0700
     15 N15        -1.9785    3.4793   51.6641 N.am    1  ZINC000464706598   -0.6100
     16 C16        -2.4223    3.7214   53.0461 C.3     1  ZINC000464706598    0.0400
     17 C17        -1.7554    5.0065   53.5499 C.3     1  ZINC000464706598    0.0500
     18 O18        -0.3438    4.9166   53.3430 O.3     1  ZINC000464706598   -0.3700
     19 C19         0.0408    4.8086   51.9703 C.3     1  ZINC000464706598    0.0500
     20 C20        -0.5336    3.5078   51.3866 C.3     1  ZINC000464706598    0.1600
     21 H21        -0.0479    2.6504   51.8525 H       1  ZINC000464706598    0.0900
     22 C22        -0.3034    3.4743   49.8977 C.ar    1  ZINC000464706598   -0.0500
     23 C23         0.1213    2.3075   49.2900 C.ar    1  ZINC000464706598   -0.1000
     24 C24         0.3325    2.2768   47.9243 C.ar    1  ZINC000464706598   -0.1100
     25 C25         0.1187    3.4127   47.1661 C.ar    1  ZINC000464706598   -0.1200
     26 C26        -0.3068    4.5792   47.7736 C.ar    1  ZINC000464706598   -0.1100
     27 C27        -0.5222    4.6088   49.1387 C.ar    1  ZINC000464706598   -0.1000
     28 H28        -4.7077    1.0657   51.3161 H       1  ZINC000464706598    0.1900
     29 H29        -6.2376   -0.1220   51.8722 H       1  ZINC000464706598    0.1400
     30 H30        -8.1469   -1.5675   52.4396 H       1  ZINC000464706598    0.1500
     31 H31       -10.7379    1.8223   52.3903 H       1  ZINC000464706598    0.1500
     32 H32        -8.8328    3.2758   51.8289 H       1  ZINC000464706598    0.1500
     33 H33        -4.9027    5.3470   50.8682 H       1  ZINC000464706598    0.2100
     34 H34        -3.5059    3.8369   53.0688 H       1  ZINC000464706598    0.1200
     35 H35        -2.1285    2.8833   53.6781 H       1  ZINC000464706598    0.0800
     36 H36        -2.1503    5.8611   53.0005 H       1  ZINC000464706598    0.0600
     37 H37        -1.9603    5.1302   54.6133 H       1  ZINC000464706598    0.1100
     38 H38        -0.3475    5.6624   51.4151 H       1  ZINC000464706598    0.0600
     39 H39         1.1282    4.7899   51.8972 H       1  ZINC000464706598    0.1100
     40 H40         0.2883    1.4200   49.8824 H       1  ZINC000464706598    0.1100
     41 H41         0.6649    1.3654   47.4496 H       1  ZINC000464706598    0.1200
     42 H42         0.2844    3.3889   46.0992 H       1  ZINC000464706598    0.1200
     43 H43        -0.4735    5.4668   47.1813 H       1  ZINC000464706598    0.1200
     44 H44        -0.8547    5.5202   49.6134 H       1  ZINC000464706598    0.1100
@<TRIPOS>BOND
     1     1     2    2
     2     2     3    1
     3     2    15   am
     4     3    14    1
     5     3     4    2
     6     4     5    1
     7     4    28    1
     8     5     6    1
     9     5    13    1
    10     6    12   ar
    11     6     7   ar
    12     7     8   ar
    13     7    29    1
    14     8     9   ar
    15     8    30    1
    16     9    10    1
    17     9    11   ar
    18    11    12   ar
    19    11    31    1
    20    12    32    1
    21    13    14    2
    22    14    33    1
    23    15    20    1
    24    15    16    1
    25    16    17    1
    26    16    34    1
    27    16    35    1
    28    17    18    1
    29    17    36    1
    30    17    37    1
    31    18    19    1
    32    19    20    1
    33    19    38    1
    34    19    39    1
    35    20    21    1
    36    20    22    1
    37    22    27   ar
    38    22    23   ar
    39    23    24   ar
    40    23    40    1
    41    24    25   ar
    42    24    41    1
    43    25    26   ar
    44    25    42    1
    45    26    27   ar
    46    26    43    1
    47    27    44    1
@<TRIPOS>SUBSTRUCTURE
     1 ZINC000464706598        1 TEMP              0 ****  ****    0 ROOT


##########                                Name:    ZINC001345266033
##########                DOCK_Rotatable_Bonds:                   4
##########                         Heavy_Atoms:                  29
##########                    Molecular_Weight:               389.5
##########                DOCK_Rotatable_Bonds:                   4
##########                       Formal_Charge:          -0.0100001
##########                     HBond_Acceptors:                   6
##########                        HBond_Donors:                   0
##########                         Heavy_Atoms:                  29
##########                          Grid_Score:          -26.304569
##########                     Grid_vdw_energy:          -26.805199
##########                      Grid_es_energy:            0.500630
##########           Internal_energy_repulsive:           11.356795

@<TRIPOS>MOLECULE
ZINC001345266033
 56 61 1 0 0
SMALL
USER_CHARGES


@<TRIPOS>ATOM
      1 C1         -0.8650    2.2886   47.0142 C.ar    1  ZINC001345266033   -0.1100
      2 C2         -2.2057    1.9481   47.1745 C.ar    1  ZINC001345266033   -0.0900
      3 C3         -2.8335    2.1151   48.3745 C.ar    1  ZINC001345266033   -0.1100
      4 C4         -2.1189    2.6347   49.4565 C.ar    1  ZINC001345266033    0.0000
      5 C5         -0.7527    2.9824   49.2978 C.ar    1  ZINC001345266033   -0.1100
      6 C6         -0.1394    2.7976   48.0490 C.ar    1  ZINC001345266033   -0.0900
      7 C7         -0.0579    3.5022   50.4020 C.ar    1  ZINC001345266033    0.1700
      8 N8         -0.6551    3.6647   51.5579 N.ar    1  ZINC001345266033   -0.4800
      9 C9         -1.9239    3.3625   51.7772 C.ar    1  ZINC001345266033    0.0900
     10 C10        -2.7261    2.8401   50.7710 C.ar    1  ZINC001345266033   -0.0700
     11 C11        -4.1409    2.5044   51.0194 C.2     1  ZINC001345266033    0.2300
     12 N12        -4.7083    1.3322   50.8438 N.2     1  ZINC001345266033   -0.2600
     13 N13        -5.9526    1.3966   51.1583 N.2     1  ZINC001345266033   -0.3000
     14 C14        -6.2562    2.6125   51.5536 C.2     1  ZINC001345266033    0.3600
     15 N15        -7.5005    3.0536   51.9680 N.3     1  ZINC001345266033   -0.4600
     16 C16        -8.2358    3.6721   50.8582 C.3     1  ZINC001345266033    0.0600
     17 C17        -9.5049    4.3446   51.3852 C.3     1  ZINC001345266033   -0.1100
     18 C18       -10.4173    3.2815   52.0085 C.3     1  ZINC001345266033   -0.0800
     19 C19        -9.6158    2.5097   53.0621 C.3     1  ZINC001345266033   -0.1300
     20 C20        -9.7050    2.9845   54.5116 C.3     1  ZINC001345266033   -0.1600
     21 C21       -10.3943    1.6860   54.0864 C.3     1  ZINC001345266033   -0.1700
     22 C22        -8.2733    1.9586   52.5729 C.3     1  ZINC001345266033    0.1100
     23 N23        -5.1152    3.3581   51.4847 N.pl3   1  ZINC001345266033   -0.4600
     24 C24        -4.9612    4.7743   51.8268 C.3     1  ZINC001345266033    0.1000
     25 C25        -4.7534    4.9146   53.3361 C.3     1  ZINC001345266033   -0.1400
     26 H26        -4.1869    4.0674   53.7227 H       1  ZINC001345266033    0.1000
     27 C27        -6.1158    5.0318   54.0620 C.3     1  ZINC001345266033   -0.1500
     28 C28        -5.8218    6.1146   55.1315 C.3     1  ZINC001345266033    0.0500
     29 O29        -4.9415    7.0326   54.4480 O.3     1  ZINC001345266033   -0.3700
     30 C30        -4.0338    6.2379   53.6608 C.3     1  ZINC001345266033    0.0300
     31 H31        -0.3912    2.1425   46.0547 H       1  ZINC001345266033    0.1300
     32 H32        -2.7568    1.5465   46.3370 H       1  ZINC001345266033    0.1300
     33 H33        -3.8739    1.8481   48.4868 H       1  ZINC001345266033    0.1600
     34 H34         0.8998    3.0564   47.9096 H       1  ZINC001345266033    0.1400
     35 H35         0.9828    3.7715   50.2976 H       1  ZINC001345266033    0.1700
     36 H36        -2.3446    3.5250   52.7586 H       1  ZINC001345266033    0.1700
     37 H37        -7.6040    4.4182   50.3764 H       1  ZINC001345266033    0.0700
     38 H38        -8.5070    2.9058   50.1320 H       1  ZINC001345266033    0.0500
     39 H39        -9.2385    5.0840   52.1405 H       1  ZINC001345266033    0.0800
     40 H40       -10.0259    4.8346   50.5627 H       1  ZINC001345266033    0.0800
     41 H41       -11.2729    3.7645   52.4807 H       1  ZINC001345266033    0.0700
     42 H42       -10.7614    2.5951   51.2349 H       1  ZINC001345266033    0.0700
     43 H43        -8.8078    2.9007   55.1249 H       1  ZINC001345266033    0.0900
     44 H44       -10.3393    3.8459   54.7210 H       1  ZINC001345266033    0.0900
     45 H45       -11.4820    1.6931   54.0161 H       1  ZINC001345266033    0.1000
     46 H46        -9.9506    0.7479   54.4199 H       1  ZINC001345266033    0.1000
     47 H47        -8.4471    1.1804   51.8297 H       1  ZINC001345266033    0.0600
     48 H48        -7.7202    1.5437   53.4157 H       1  ZINC001345266033    0.0800
     49 H49        -4.0980    5.1832   51.3017 H       1  ZINC001345266033    0.1100
     50 H50        -5.8578    5.3190   51.5313 H       1  ZINC001345266033    0.1100
     51 H51        -6.8948    5.3642   53.3759 H       1  ZINC001345266033    0.0800
     52 H52        -6.3895    4.0865   54.5306 H       1  ZINC001345266033    0.0900
     53 H53        -6.7413    6.6166   55.4323 H       1  ZINC001345266033    0.1000
     54 H54        -5.3227    5.6754   55.9952 H       1  ZINC001345266033    0.0600
     55 H55        -3.1258    6.0395   54.2301 H       1  ZINC001345266033    0.0600
     56 H56        -3.7876    6.7620   52.7374 H       1  ZINC001345266033    0.0900
@<TRIPOS>BOND
     1     1     6   ar
     2     1     2   ar
     3     1    31    1
     4     2     3   ar
     5     2    32    1
     6     3     4   ar
     7     3    33    1
     8     4    10   ar
     9     4     5   ar
    10     5     6   ar
    11     5     7   ar
    12     6    34    1
    13     7     8   ar
    14     7    35    1
    15     8     9   ar
    16     9    10   ar
    17     9    36    1
    18    10    11    1
    19    11    23    1
    20    11    12    2
    21    12    13    1
    22    13    14    2
    23    14    15    1
    24    14    23    1
    25    15    22    1
    26    15    16    1
    27    16    17    1
    28    16    37    1
    29    16    38    1
    30    17    18    1
    31    17    39    1
    32    17    40    1
    33    18    19    1
    34    18    41    1
    35    18    42    1
    36    19    21    1
    37    19    20    1
    38    19    22    1
    39    20    21    1
    40    20    43    1
    41    20    44    1
    42    21    45    1
    43    21    46    1
    44    22    47    1
    45    22    48    1
    46    23    24    1
    47    24    25    1
    48    24    49    1
    49    24    50    1
    50    25    26    1
    51    25    30    1
    52    25    27    1
    53    27    28    1
    54    27    51    1
    55    27    52    1
    56    28    29    1
    57    28    53    1
    58    28    54    1
    59    29    30    1
    60    30    55    1
    61    30    56    1
@<TRIPOS>SUBSTRUCTURE
     1 ZINC001345266033        1 TEMP              0 ****  ****    0 ROOT


##########                                Name:    ZINC000013551438
##########                DOCK_Rotatable_Bonds:                   5
##########                         Heavy_Atoms:                  27
##########                    Molecular_Weight:             377.467
##########                DOCK_Rotatable_Bonds:                   5
##########                       Formal_Charge:          -0.0300005
##########                     HBond_Acceptors:                   6
##########                        HBond_Donors:                   1
##########                         Heavy_Atoms:                  27
##########                          Grid_Score:          -26.274401
##########                     Grid_vdw_energy:          -26.482880
##########                      Grid_es_energy:            0.208478
##########           Internal_energy_repulsive:            8.159398

@<TRIPOS>MOLECULE
ZINC000013551438
 46 49 1 0 0
SMALL
USER_CHARGES


@<TRIPOS>ATOM
      1 C1          3.7774   -1.5673   49.5645 C.3     1  <0>         0.0300
      2 O2          2.5865   -1.2257   48.8524 O.3     1  <0>        -0.3200
      3 C3          2.6910   -0.2573   47.9034 C.ar    1  <0>         0.1000
      4 C4          3.5722   -0.4219   46.8384 C.ar    1  <0>        -0.1800
      5 C5          3.6898    0.5494   45.8693 C.ar    1  <0>        -0.0900
      6 C6          2.9240    1.7079   45.9490 C.ar    1  <0>         0.0700
      7 C7          2.0334    1.8757   47.0230 C.ar    1  <0>        -0.0400
      8 C8          1.9181    0.8838   47.9965 C.ar    1  <0>        -0.1100
      9 C9          1.3882    3.1820   46.8171 C.2     1  <0>        -0.1200
     10 C10         0.3658    3.8113   47.6887 C.2     1  <0>         0.1700
     11 C11         0.5212    5.0317   48.2354 C.2     1  <0>        -0.3000
     12 S12        -0.9163    5.3891   49.1886 S.3     1  <0>         0.2500
     13 C13        -1.5897    3.8757   48.7677 C.2     1  <0>         0.2400
     14 N14        -2.8289    3.4146   49.1917 N.am    1  <0>        -0.6200
     15 C15        -3.1503    3.4520   50.5000 C.2     1  <0>         0.5600
     16 O16        -2.3558    3.8909   51.3087 O.2     1  <0>        -0.5000
     17 C17        -4.4686    2.9595   50.9515 C.ar    1  <0>        -0.1400
     18 C18        -5.3335    2.3415   50.0466 C.ar    1  <0>        -0.0800
     19 C19        -6.5624    1.8835   50.4747 C.ar    1  <0>        -0.1300
     20 C20        -6.9384    2.0359   51.7975 C.ar    1  <0>        -0.0800
     21 C21        -6.0862    2.6480   52.6994 C.ar    1  <0>        -0.1300
     22 C22        -4.8520    3.1052   52.2858 C.ar    1  <0>        -0.0500
     23 N23        -0.7839    3.2225   47.9926 N.2     1  <0>        -0.5000
     24 C24         1.9082    3.6993   45.6786 C.2     1  <0>         0.1300
     25 C25         1.5348    5.0318   45.0819 C.3     1  <0>        -0.0900
     26 N26         2.8242    2.8302   45.1526 N.pl3   1  <0>        -0.4800
     27 C27         3.5884    3.0581   43.9237 C.3     1  <0>         0.0800
     28 H28         4.1549   -0.6870   50.0847 H       1  <0>         0.0500
     29 H29         3.5552   -2.3504   50.2895 H       1  <0>         0.1000
     30 H30         4.5305   -1.9253   48.8625 H       1  <0>         0.0500
     31 H31         4.1695   -1.3193   46.7720 H       1  <0>         0.1300
     32 H32         4.3769    0.4117   45.0474 H       1  <0>         0.1200
     33 H33         1.2344    1.0107   48.8228 H       1  <0>         0.1300
     34 H34         1.3773    5.6783   48.1112 H       1  <0>         0.1800
     35 H35        -3.4632    3.0655   48.5462 H       1  <0>         0.4200
     36 H36        -5.0414    2.2223   49.0138 H       1  <0>         0.1300
     37 H37        -7.2327    1.4056   49.7757 H       1  <0>         0.1300
     38 H38        -7.9016    1.6756   52.1275 H       1  <0>         0.1300
     39 H39        -6.3859    2.7641   53.7305 H       1  <0>         0.1300
     40 H40        -4.1876    3.5825   52.9909 H       1  <0>         0.1400
     41 H41         2.2442    5.7900   45.4136 H       1  <0>         0.0800
     42 H42         1.5591    4.9624   43.9944 H       1  <0>         0.0700
     43 H43         0.5311    5.3066   45.4062 H       1  <0>         0.0800
     44 H44         4.5213    3.5675   44.1652 H       1  <0>         0.0700
     45 H45         3.8089    2.1014   43.4501 H       1  <0>         0.0800
     46 H46         3.0037    3.6751   43.2414 H       1  <0>         0.0800
@<TRIPOS>BOND
     1     1     2    1
     2     1    28    1
     3     1    29    1
     4     1    30    1
     5     2     3    1
     6     3     8   ar
     7     3     4   ar
     8     4     5   ar
     9     4    31    1
    10     5     6   ar
    11     5    32    1
    12     6    26    1
    13     6     7   ar
    14     7     8   ar
    15     7     9    1
    16     8    33    1
    17     9    10    1
    18     9    24    2
    19    10    23    1
    20    10    11    2
    21    11    12    1
    22    11    34    1
    23    12    13    1
    24    13    14    1
    25    13    23    2
    26    14    15   am
    27    14    35    1
    28    15    16    2
    29    15    17    1
    30    17    22   ar
    31    17    18   ar
    32    18    19   ar
    33    18    36    1
    34    19    20   ar
    35    19    37    1
    36    20    21   ar
    37    20    38    1
    38    21    22   ar
    39    21    39    1
    40    22    40    1
    41    24    25    1
    42    24    26    1
    43    25    41    1
    44    25    42    1
    45    25    43    1
    46    26    27    1
    47    27    44    1
    48    27    45    1
    49    27    46    1
@<TRIPOS>SUBSTRUCTURE
     1 <0>         1 TEMP              0 ****  ****    0 ROOT


##########                                Name:    ZINC001110536231
##########                DOCK_Rotatable_Bonds:                   8
##########                         Heavy_Atoms:                  24
##########                    Molecular_Weight:             329.442
##########                DOCK_Rotatable_Bonds:                   8
##########                       Formal_Charge:          -0.0400001
##########                     HBond_Acceptors:                   5
##########                        HBond_Donors:                   1
##########                         Heavy_Atoms:                  24
##########                          Grid_Score:          -26.268166
##########                     Grid_vdw_energy:          -26.918032
##########                      Grid_es_energy:            0.649866
##########           Internal_energy_repulsive:           26.115728

@<TRIPOS>MOLECULE
ZINC001110536231
 51 53 1 0 0
SMALL
USER_CHARGES


@<TRIPOS>ATOM
      1 C1         -6.3573    0.8600   51.0832 C.3     1  ZINC001110536231   -0.1300
      2 C2         -6.3637    2.2078   50.3592 C.3     1  ZINC001110536231   -0.1000
      3 C3         -5.2172    3.0503   50.8560 C.2     1  ZINC001110536231   -0.0200
      4 C4         -5.4862    4.3934   51.4845 C.3     1  ZINC001110536231   -0.1300
      5 C5         -3.9681    2.6087   50.7398 C.2     1  ZINC001110536231   -0.2400
      6 C6         -2.8492    3.4312   51.2247 C.2     1  ZINC001110536231    0.5400
      7 O7         -2.8256    3.8045   52.3819 O.2     1  ZINC001110536231   -0.5300
      8 N8         -1.8500    3.7713   50.3865 N.am    1  ZINC001110536231   -0.7300
      9 C9         -0.7347    4.5890   50.8699 C.3     1  ZINC001110536231    0.1100
     10 H10        -1.0918    5.3534   51.5600 H       1  ZINC001110536231    0.1000
     11 C11         0.0213    5.2359   49.6836 C.3     1  ZINC001110536231   -0.1600
     12 C12         1.4591    4.6467   49.8031 C.3     1  ZINC001110536231    0.0500
     13 H13         2.0567    4.6751   48.8919 H       1  ZINC001110536231    0.1200
     14 C14         2.0854    5.3568   51.0411 C.3     1  ZINC001110536231   -0.1200
     15 C15         1.3347    4.7252   52.2389 C.3     1  ZINC001110536231   -0.1100
     16 C16         0.3454    3.6958   51.5515 C.3     1  ZINC001110536231    0.0400
     17 H17        -0.0216    2.8952   52.1938 H       1  ZINC001110536231    0.1200
     18 N18         1.1640    3.2756   50.3534 N.3     1  ZINC001110536231   -0.4900
     19 C19         0.3579    2.4796   49.4181 C.3     1  ZINC001110536231    0.0600
     20 C20         1.1868    1.3394   48.8852 C.ar    1  ZINC001110536231    0.0100
     21 C21         1.5438    1.2871   47.5451 C.ar    1  ZINC001110536231   -0.2100
     22 C22         2.3044    0.2285   47.0895 C.ar    1  ZINC001110536231    0.1400
     23 N23         2.6928   -0.7282   47.9109 N.ar    1  ZINC001110536231   -0.5400
     24 C24         2.3725   -0.7133   49.1942 C.ar    1  ZINC001110536231    0.3200
     25 O25         2.7937   -1.7177   50.0035 O.3     1  ZINC001110536231   -0.3100
     26 C26         4.0891   -1.5780   50.5903 C.3     1  ZINC001110536231    0.0400
     27 C27         1.6142    0.3233   49.7225 C.ar    1  ZINC001110536231   -0.1700
     28 H28        -7.1864    0.2506   50.7239 H       1  ZINC001110536231    0.0500
     29 H29        -5.4165    0.3461   50.8859 H       1  ZINC001110536231    0.0700
     30 H30        -6.4642    1.0230   52.1556 H       1  ZINC001110536231    0.0400
     31 H31        -6.2567    2.0447   49.2868 H       1  ZINC001110536231    0.0900
     32 H32        -7.3045    2.7217   50.5565 H       1  ZINC001110536231    0.0600
     33 H33        -5.6229    4.2710   52.5589 H       1  ZINC001110536231    0.0800
     34 H34        -4.6415    5.0570   51.2990 H       1  ZINC001110536231    0.0700
     35 H35        -6.3885    4.8237   51.0500 H       1  ZINC001110536231    0.0700
     36 H36        -3.7754    1.6462   50.2894 H       1  ZINC001110536231    0.1200
     37 H37        -1.8694    3.4746   49.4632 H       1  ZINC001110536231    0.4000
     38 H38        -0.4337    4.9481   48.7359 H       1  ZINC001110536231    0.0700
     39 H39         0.0414    6.3208   49.7871 H       1  ZINC001110536231    0.0800
     40 H40         3.1533    5.1476   51.1039 H       1  ZINC001110536231    0.0700
     41 H41         1.9057    6.4310   50.9988 H       1  ZINC001110536231    0.0700
     42 H42         2.0305    4.2029   52.8955 H       1  ZINC001110536231    0.0800
     43 H43         0.7829    5.4864   52.7904 H       1  ZINC001110536231    0.0700
     44 H44        -0.5147    2.0830   49.9370 H       1  ZINC001110536231    0.0900
     45 H45         0.0330    3.1103   48.5906 H       1  ZINC001110536231    0.0700
     46 H46         1.2298    2.0658   46.8658 H       1  ZINC001110536231    0.1300
     47 H47         2.5847    0.1829   46.0475 H       1  ZINC001110536231    0.1600
     48 H48         4.3018   -2.4475   51.2124 H       1  ZINC001110536231    0.1000
     49 H49         4.8387   -1.5027   49.8026 H       1  ZINC001110536231    0.0600
     50 H50         4.1150   -0.6773   51.2037 H       1  ZINC001110536231    0.0600
     51 H51         1.3548    0.3324   50.7708 H       1  ZINC001110536231    0.1400
@<TRIPOS>BOND
     1     1     2    1
     2     1    28    1
     3     1    29    1
     4     1    30    1
     5     2     3    1
     6     2    31    1
     7     2    32    1
     8     3     4    1
     9     3     5    2
    10     4    33    1
    11     4    34    1
    12     4    35    1
    13     5     6    1
    14     5    36    1
    15     6     7    2
    16     6     8   am
    17     8     9    1
    18     8    37    1
    19     9    10    1
    20     9    16    1
    21     9    11    1
    22    11    12    1
    23    11    38    1
    24    11    39    1
    25    12    13    1
    26    12    18    1
    27    12    14    1
    28    14    15    1
    29    14    40    1
    30    14    41    1
    31    15    16    1
    32    15    42    1
    33    15    43    1
    34    16    17    1
    35    16    18    1
    36    18    19    1
    37    19    20    1
    38    19    44    1
    39    19    45    1
    40    20    27   ar
    41    20    21   ar
    42    21    22   ar
    43    21    46    1
    44    22    23   ar
    45    22    47    1
    46    23    24   ar
    47    24    25    1
    48    24    27   ar
    49    25    26    1
    50    26    48    1
    51    26    49    1
    52    26    50    1
    53    27    51    1
@<TRIPOS>SUBSTRUCTURE
     1 ZINC001110536231        1 TEMP              0 ****  ****    0 ROOT


##########                                Name:    ZINC000866034032
##########                DOCK_Rotatable_Bonds:                   4
##########                         Heavy_Atoms:                  23
##########                    Molecular_Weight:             383.242
##########                DOCK_Rotatable_Bonds:                   4
##########                       Formal_Charge:           0.0199999
##########                     HBond_Acceptors:                   6
##########                        HBond_Donors:                   1
##########                         Heavy_Atoms:                  23
##########                          Grid_Score:          -26.194204
##########                     Grid_vdw_energy:          -25.925180
##########                      Grid_es_energy:           -0.269024
##########           Internal_energy_repulsive:           13.039602

@<TRIPOS>MOLECULE
ZINC000866034032
 42 44 1 0 0
SMALL
USER_CHARGES


@<TRIPOS>ATOM
      1 C1          4.0709   -1.2849   50.3509 C.3     1  ZINC000866034032   -0.1300
      2 C2          3.2176   -0.2954   49.5547 C.3     1  ZINC000866034032   -0.0800
      3 C3          1.8531   -0.0385   50.1976 C.3     1  ZINC000866034032   -0.1300
      4 C4          3.9672    0.9889   49.1682 C.3     1  ZINC000866034032    0.1400
      5 H5          4.8023    1.2211   49.8291 H       1  ZINC000866034032    0.1100
      6 N6          3.0845    2.1365   48.9444 N.am    1  ZINC000866034032   -0.7000
      7 C7          2.8962    3.0428   49.9240 C.2     1  ZINC000866034032    0.5100
      8 O8          3.4562    2.9076   50.9912 O.2     1  ZINC000866034032   -0.5300
      9 C9          1.9896    4.2243   49.6932 C.3     1  ZINC000866034032   -0.1100
     10 C10         0.5628    3.8239   49.9674 C.ar    1  ZINC000866034032   -0.0500
     11 C11         0.0062    4.0588   51.2107 C.ar    1  ZINC000866034032   -0.0500
     12 C12        -1.3024    3.6913   51.4628 C.ar    1  ZINC000866034032   -0.0900
     13 C13        -2.0547    3.0889   50.4709 C.ar    1  ZINC000866034032   -0.0500
     14 Br14       -3.8449    2.5866   50.8151 Br      1  ZINC000866034032    0.0200
     15 C15        -1.4973    2.8544   49.2266 C.ar    1  ZINC000866034032   -0.0200
     16 N16        -2.3020    2.2103   48.1645 N.pl3   1  ZINC000866034032    0.0200
     17 O17        -1.8111    2.0040   47.0691 O.2     1  ZINC000866034032   -0.1600
     18 O18        -3.4552    1.8866   48.3859 O.2     1  ZINC000866034032   -0.1300
     19 C19        -0.1907    3.2269   48.9738 C.ar    1  ZINC000866034032   -0.0300
     20 C20         4.3890    0.2751   47.8735 C.3     1  ZINC000866034032   -0.1500
     21 H21         5.3599   -0.2200   47.8879 H       1  ZINC000866034032    0.1200
     22 C22         4.0890    1.1053   46.6055 C.3     1  ZINC000866034032   -0.1400
     23 C23         2.6919    0.6211   46.1594 C.3     1  ZINC000866034032    0.0500
     24 O24         2.0802    0.1028   47.3604 O.3     1  ZINC000866034032   -0.3600
     25 C25         3.1379   -0.6217   48.0562 C.3     1  ZINC000866034032    0.0600
     26 H26         3.2370   -1.6703   47.7757 H       1  ZINC000866034032    0.1000
     27 H27         4.9589   -1.5446   49.7746 H       1  ZINC000866034032    0.0600
     28 H28         4.3705   -0.8290   51.2945 H       1  ZINC000866034032    0.0700
     29 H29         3.4911   -2.1860   50.5507 H       1  ZINC000866034032    0.0700
     30 H30         1.9867    0.5272   51.1196 H       1  ZINC000866034032    0.0600
     31 H31         1.2286    0.5310   49.5092 H       1  ZINC000866034032    0.0600
     32 H32         1.3721   -0.9905   50.4219 H       1  ZINC000866034032    0.0600
     33 H33         2.6356    2.2441   48.0913 H       1  ZINC000866034032    0.4100
     34 H34         2.2738    5.0366   50.3623 H       1  ZINC000866034032    0.1100
     35 H35         2.0815    4.5564   48.6591 H       1  ZINC000866034032    0.1200
     36 H36         0.5938    4.5291   51.9852 H       1  ZINC000866034032    0.1500
     37 H37        -1.7371    3.8741   52.4344 H       1  ZINC000866034032    0.1600
     38 H38         0.2445    3.0443   48.0023 H       1  ZINC000866034032    0.1600
     39 H39         4.0668    2.1690   46.8421 H       1  ZINC000866034032    0.0800
     40 H40         4.8290    0.9009   45.8316 H       1  ZINC000866034032    0.0800
     41 H41         2.1093    1.4540   45.7660 H       1  ZINC000866034032    0.0900
     42 H42         2.7841   -0.1657   45.4107 H       1  ZINC000866034032    0.0600
@<TRIPOS>BOND
     1     1     2    1
     2     1    27    1
     3     1    28    1
     4     1    29    1
     5     2    25    1
     6     2     3    1
     7     2     4    1
     8     3    30    1
     9     3    31    1
    10     3    32    1
    11     4     5    1
    12     4     6    1
    13     4    20    1
    14     6     7   am
    15     6    33    1
    16     7     8    2
    17     7     9    1
    18     9    10    1
    19     9    34    1
    20     9    35    1
    21    10    19   ar
    22    10    11   ar
    23    11    12   ar
    24    11    36    1
    25    12    13   ar
    26    12    37    1
    27    13    14    1
    28    13    15   ar
    29    15    16    1
    30    15    19   ar
    31    16    17    2
    32    16    18    2
    33    19    38    1
    34    20    21    1
    35    20    25    1
    36    20    22    1
    37    22    23    1
    38    22    39    1
    39    22    40    1
    40    23    24    1
    41    23    41    1
    42    23    42    1
    43    24    25    1
    44    25    26    1
@<TRIPOS>SUBSTRUCTURE
     1 ZINC000866034032        1 TEMP              0 ****  ****    0 ROOT


##########                                Name:    ZINC001016082614
##########                DOCK_Rotatable_Bonds:                   6
##########                         Heavy_Atoms:                  25
##########                    Molecular_Weight:             348.402
##########                DOCK_Rotatable_Bonds:                   6
##########                       Formal_Charge:         -0.00999998
##########                     HBond_Acceptors:                   8
##########                        HBond_Donors:                   1
##########                         Heavy_Atoms:                  25
##########                          Grid_Score:          -26.162563
##########                     Grid_vdw_energy:          -25.592070
##########                      Grid_es_energy:           -0.570494
##########           Internal_energy_repulsive:           38.211586

@<TRIPOS>MOLECULE
ZINC001016082614
 49 51 1 0 0
SMALL
USER_CHARGES


@<TRIPOS>ATOM
      1 C1         -3.5749    5.6827   56.3723 C.3     1  ZINC001016082614   -0.1700
      2 C2         -3.5751    4.3163   55.6838 C.3     1  ZINC001016082614    0.1000
      3 N3         -2.4734    4.2550   54.7201 N.am    1  ZINC001016082614   -0.6100
      4 C4         -1.2841    3.7384   55.0879 C.2     1  ZINC001016082614    0.6100
      5 O5         -0.3691    3.6874   54.2875 O.2     1  ZINC001016082614   -0.5100
      6 C6         -1.0929    3.2373   56.4536 C.2     1  ZINC001016082614   -0.1100
      7 C7         -0.2817    2.2110   56.8376 C.2     1  ZINC001016082614    0.0600
      8 N8         -0.4000    2.0808   58.1630 N.2     1  ZINC001016082614   -0.4900
      9 C9         -1.2422    2.9761   58.6046 C.2     1  ZINC001016082614    0.2000
     10 O10        -1.6829    3.7083   57.5769 O.3     1  ZINC001016082614   -0.1900
     11 C11        -2.6643    4.7554   53.3564 C.3     1  ZINC001016082614    0.1600
     12 H12        -3.6554    5.2041   53.2894 H       1  ZINC001016082614    0.0800
     13 C13        -1.6232    5.8376   53.0873 C.3     1  ZINC001016082614   -0.1300
     14 C14        -2.1478    6.7863   52.0378 C.3     1  ZINC001016082614   -0.1300
     15 C15        -1.7056    6.3233   50.6378 C.3     1  ZINC001016082614    0.1000
     16 N16        -1.7913    4.8578   50.4837 N.am    1  ZINC001016082614   -0.6000
     17 C17        -0.7894    4.2148   49.8520 C.2     1  ZINC001016082614    0.5000
     18 O18         0.1575    4.8400   49.4238 O.2     1  ZINC001016082614   -0.5200
     19 C19        -0.8457    2.7189   49.6776 C.3     1  ZINC001016082614    0.1100
     20 H20        -1.2639    2.2514   50.5690 H       1  ZINC001016082614    0.1100
     21 C21         0.5663    2.1604   49.3933 C.3     1  ZINC001016082614   -0.1200
     22 C22         0.5918    2.1402   47.8474 C.3     1  ZINC001016082614   -0.1600
     23 C23        -0.8660    2.0512   47.4533 C.2     1  ZINC001016082614    0.5300
     24 O24        -1.2705    1.7335   46.3550 O.2     1  ZINC001016082614   -0.5300
     25 N25        -1.6497    2.3749   48.4990 N.am    1  ZINC001016082614   -0.7100
     26 C26        -2.9057    4.0836   50.9828 C.3     1  ZINC001016082614    0.1300
     27 C27        -2.6037    3.6160   52.4281 C.3     1  ZINC001016082614   -0.1600
     28 H28        -4.3946    5.7283   57.0894 H       1  ZINC001016082614    0.0700
     29 H29        -2.6282    5.8270   56.8930 H       1  ZINC001016082614    0.0500
     30 H30        -3.7018    6.4661   55.6251 H       1  ZINC001016082614    0.0600
     31 H31        -3.4481    3.5329   56.4310 H       1  ZINC001016082614    0.0900
     32 H32        -4.5217    4.1719   55.1632 H       1  ZINC001016082614    0.0900
     33 H33         0.3418    1.6125   56.1899 H       1  ZINC001016082614    0.2000
     34 H34        -1.5328    3.1070   59.6365 H       1  ZINC001016082614    0.2600
     35 H35        -1.4238    6.3873   54.0073 H       1  ZINC001016082614    0.0700
     36 H36        -0.7020    5.3758   52.7322 H       1  ZINC001016082614    0.0800
     37 H37        -3.2366    6.8097   52.0835 H       1  ZINC001016082614    0.0700
     38 H38        -1.7583    7.7865   52.2275 H       1  ZINC001016082614    0.0800
     39 H39        -2.3435    6.7957   49.8908 H       1  ZINC001016082614    0.0700
     40 H40        -0.6752    6.6370   50.4704 H       1  ZINC001016082614    0.0800
     41 H41         1.3352    2.8247   49.7876 H       1  ZINC001016082614    0.1000
     42 H42         0.6767    1.1545   49.7985 H       1  ZINC001016082614    0.1000
     43 H43         1.0361    3.0576   47.4612 H       1  ZINC001016082614    0.1100
     44 H44         1.1385    1.2690   47.4863 H       1  ZINC001016082614    0.1100
     45 H45        -2.6193    2.3800   48.4753 H       1  ZINC001016082614    0.4200
     46 H46        -3.8056    4.6987   50.9789 H       1  ZINC001016082614    0.0800
     47 H47        -3.0584    3.2138   50.3439 H       1  ZINC001016082614    0.0900
     48 H48        -1.6095    3.1707   52.4629 H       1  ZINC001016082614    0.0900
     49 H49        -3.3406    2.8708   52.7276 H       1  ZINC001016082614    0.0700
@<TRIPOS>BOND
     1     1     2    1
     2     1    28    1
     3     1    29    1
     4     1    30    1
     5     2     3    1
     6     2    31    1
     7     2    32    1
     8     3     4   am
     9     3    11    1
    10     4     5    2
    11     4     6    1
    12     6    10    1
    13     6     7    2
    14     7     8    1
    15     7    33    1
    16     8     9    2
    17     9    10    1
    18     9    34    1
    19    11    12    1
    20    11    27    1
    21    11    13    1
    22    13    14    1
    23    13    35    1
    24    13    36    1
    25    14    15    1
    26    14    37    1
    27    14    38    1
    28    15    16    1
    29    15    39    1
    30    15    40    1
    31    16    17   am
    32    16    26    1
    33    17    18    2
    34    17    19    1
    35    19    20    1
    36    19    25    1
    37    19    21    1
    38    21    22    1
    39    21    41    1
    40    21    42    1
    41    22    23    1
    42    22    43    1
    43    22    44    1
    44    23    24    2
    45    23    25   am
    46    25    45    1
    47    26    27    1
    48    26    46    1
    49    26    47    1
    50    27    48    1
    51    27    49    1
@<TRIPOS>SUBSTRUCTURE
     1 ZINC001016082614        1 TEMP              0 ****  ****    0 ROOT


##########                                Name:    ZINC000337709254
##########                DOCK_Rotatable_Bonds:                   7
##########                         Heavy_Atoms:                  22
##########                    Molecular_Weight:              329.42
##########                DOCK_Rotatable_Bonds:                   7
##########                       Formal_Charge:           0.0300004
##########                     HBond_Acceptors:                   8
##########                        HBond_Donors:                   2
##########                         Heavy_Atoms:                  22
##########                          Grid_Score:          -26.146999
##########                     Grid_vdw_energy:          -25.370419
##########                      Grid_es_energy:           -0.776580
##########           Internal_energy_repulsive:            9.909337

@<TRIPOS>MOLECULE
ZINC000337709254
 45 46 1 0 0
SMALL
USER_CHARGES


@<TRIPOS>ATOM
      1 C1         -7.3484    3.2725   51.0763 C.3     1  ZINC000337709254   -0.6700
      2 S2         -6.6911    1.6463   51.5390 S.o2    1  ZINC000337709254    2.6100
      3 O3         -7.4332    1.0977   52.6196 O.2     1  ZINC000337709254   -0.9500
      4 O4         -6.4064    0.8754   50.3797 O.2     1  ZINC000337709254   -0.9500
      5 N5         -5.2032    1.9716   52.1888 N.am    1  ZINC000337709254   -1.1200
      6 C6         -4.1795    2.6362   51.3785 C.3     1  ZINC000337709254    0.1200
      7 C7         -3.8986    4.0267   51.9517 C.3     1  ZINC000337709254   -0.1100
      8 H8         -4.8297    4.5767   52.0896 H       1  ZINC000337709254    0.1100
      9 C9         -3.1311    3.9156   53.2924 C.3     1  ZINC000337709254   -0.1200
     10 C10        -2.4261    5.2907   53.3978 C.3     1  ZINC000337709254   -0.1200
     11 C11        -2.0026    5.6106   51.9493 C.3     1  ZINC000337709254   -0.1400
     12 C12        -2.9416    4.8083   51.0281 C.3     1  ZINC000337709254    0.1500
     13 H13        -3.5059    5.4866   50.3879 H       1  ZINC000337709254    0.1000
     14 N14        -2.1641    3.8757   50.2084 N.am    1  ZINC000337709254   -0.7200
     15 C15        -1.4458    4.3338   49.1642 C.2     1  ZINC000337709254    0.5300
     16 O16        -1.4441    5.5180   48.9021 O.2     1  ZINC000337709254   -0.5100
     17 C17        -0.6445    3.3747   48.3221 C.3     1  ZINC000337709254    0.0200
     18 C18         0.3059    2.6446   49.1767 C.1     1  ZINC000337709254    0.2000
     19 N19         1.0394    2.0812   49.8364 N.1     1  ZINC000337709254   -0.3900
     20 C20        -1.5887    2.3814   47.6379 C.3     1  ZINC000337709254   -0.1500
     21 C21        -0.7746    1.4618   46.7241 C.3     1  ZINC000337709254    0.0600
     22 O22        -0.0604    2.2509   45.7705 O.3     1  ZINC000337709254   -0.3700
     23 C23         0.8722    3.1650   46.3509 C.3     1  ZINC000337709254    0.0600
     24 C24         0.1241    4.1531   47.2498 C.3     1  ZINC000337709254   -0.1300
     25 H25        -7.4206    3.9012   51.9639 H       1  ZINC000337709254    0.1300
     26 H26        -6.6818    3.7413   50.3523 H       1  ZINC000337709254    0.1300
     27 H27        -8.3377    3.1525   50.6347 H       1  ZINC000337709254    0.1300
     28 H28        -5.0094    1.7221   53.1059 H       1  ZINC000337709254    0.4200
     29 H29        -3.2637    2.0453   51.3938 H       1  ZINC000337709254    0.0600
     30 H30        -4.5336    2.7311   50.3520 H       1  ZINC000337709254    0.0900
     31 H31        -3.8225    3.7713   54.1226 H       1  ZINC000337709254    0.0800
     32 H32        -2.3995    3.1084   53.2529 H       1  ZINC000337709254    0.0700
     33 H33        -3.1181    6.0467   53.7688 H       1  ZINC000337709254    0.0700
     34 H34        -1.5515    5.2225   54.0447 H       1  ZINC000337709254    0.0700
     35 H35        -2.1136    6.6774   51.7548 H       1  ZINC000337709254    0.0800
     36 H36        -0.9686    5.3067   51.7869 H       1  ZINC000337709254    0.0700
     37 H37        -2.1665    2.9284   50.4172 H       1  ZINC000337709254    0.4000
     38 H38        -2.0994    1.7846   48.3937 H       1  ZINC000337709254    0.0900
     39 H39        -2.3234    2.9263   47.0452 H       1  ZINC000337709254    0.1100
     40 H40        -0.0676    0.8874   47.3228 H       1  ZINC000337709254    0.0500
     41 H41        -1.4464    0.7806   46.2019 H       1  ZINC000337709254    0.1100
     42 H42         1.6006    2.6129   46.9448 H       1  ZINC000337709254    0.0500
     43 H43         1.3865    3.7108   45.5599 H       1  ZINC000337709254    0.1100
     44 H44        -0.5760    4.7338   46.6492 H       1  ZINC000337709254    0.1100
     45 H45         0.8384    4.8232   47.7280 H       1  ZINC000337709254    0.0900
@<TRIPOS>BOND
     1     1     2    1
     2     1    25    1
     3     1    26    1
     4     1    27    1
     5     2     3    2
     6     2     4    2
     7     2     5   am
     8     5     6    1
     9     5    28    1
    10     6     7    1
    11     6    29    1
    12     6    30    1
    13     7     8    1
    14     7    12    1
    15     7     9    1
    16     9    10    1
    17     9    31    1
    18     9    32    1
    19    10    11    1
    20    10    33    1
    21    10    34    1
    22    11    12    1
    23    11    35    1
    24    11    36    1
    25    12    13    1
    26    12    14    1
    27    14    15   am
    28    14    37    1
    29    15    16    2
    30    15    17    1
    31    17    24    1
    32    17    18    1
    33    17    20    1
    34    18    19    3
    35    20    21    1
    36    20    38    1
    37    20    39    1
    38    21    22    1
    39    21    40    1
    40    21    41    1
    41    22    23    1
    42    23    24    1
    43    23    42    1
    44    23    43    1
    45    24    44    1
    46    24    45    1
@<TRIPOS>SUBSTRUCTURE
     1 ZINC000337709254        1 TEMP              0 ****  ****    0 ROOT


##########                                Name:    ZINC000647468483
##########                DOCK_Rotatable_Bonds:                   5
##########                         Heavy_Atoms:                  24
##########                    Molecular_Weight:             341.373
##########                DOCK_Rotatable_Bonds:                   5
##########                       Formal_Charge:           0.0300004
##########                     HBond_Acceptors:                   6
##########                        HBond_Donors:                   2
##########                         Heavy_Atoms:                  24
##########                          Grid_Score:          -26.136360
##########                     Grid_vdw_energy:          -26.822781
##########                      Grid_es_energy:            0.686420
##########           Internal_energy_repulsive:           20.518080

@<TRIPOS>MOLECULE
ZINC000647468483
 46 48 1 0 0
SMALL
USER_CHARGES


@<TRIPOS>ATOM
      1 O1          3.3386   -2.3439   50.2418 O.co2   1  ZINC000647468483   -0.6800
      2 C2          2.7955   -1.7005   49.3601 C.2     1  ZINC000647468483    0.5000
      3 O3          1.7221   -2.0658   48.9117 O.co2   1  ZINC000647468483   -0.6900
      4 C4          3.4477   -0.4500   48.8289 C.3     1  ZINC000647468483   -0.1500
      5 H5          4.5319   -0.5605   48.8085 H       1  ZINC000647468483    0.0800
      6 C6          3.0374    0.7834   49.6711 C.3     1  ZINC000647468483   -0.1100
      7 C7          3.2370    1.9776   48.7151 C.3     1  ZINC000647468483   -0.1400
      8 C8          3.1502    1.4154   47.2854 C.3     1  ZINC000647468483    0.0100
      9 H9          4.0866    1.5935   46.7566 H       1  ZINC000647468483    0.1400
     10 N10         2.0373    2.0461   46.5633 N.4     1  ZINC000647468483   -0.5000
     11 H11         1.8831    1.5604   45.6924 H       1  ZINC000647468483    0.4200
     12 H12         1.2015    1.9998   47.1268 H       1  ZINC000647468483    0.4300
     13 C13         2.3655    3.4514   46.2888 C.3     1  ZINC000647468483    0.0200
     14 H14         3.0028    3.8471   47.0796 H       1  ZINC000647468483    0.1500
     15 C15         3.0764    3.5709   44.9294 C.3     1  ZINC000647468483   -0.1400
     16 C16         2.1902    4.4733   44.0463 C.3     1  ZINC000647468483   -0.1300
     17 C17         0.7764    4.3395   44.6648 C.3     1  ZINC000647468483   -0.1300
     18 C18         1.0719    4.2856   46.1856 C.3     1  ZINC000647468483   -0.0600
     19 H19         1.2324    5.2896   46.5788 H       1  ZINC000647468483    0.1300
     20 C20        -0.0569    3.6077   46.9186 C.ar    1  ZINC000647468483   -0.1200
     21 C21        -0.6726    2.5002   46.3668 C.ar    1  ZINC000647468483   -0.0700
     22 C22        -1.7083    1.8782   47.0392 C.ar    1  ZINC000647468483   -0.1000
     23 C23        -2.1274    2.3637   48.2635 C.ar    1  ZINC000647468483   -0.0600
     24 C24        -1.5109    3.4711   48.8159 C.ar    1  ZINC000647468483   -0.1600
     25 C25        -1.9683    4.0007   50.1506 C.3     1  ZINC000647468483    0.5000
     26 F26        -2.9123    5.0138   49.9516 F       1  ZINC000647468483   -0.1700
     27 F27        -2.5461    2.9636   50.8907 F       1  ZINC000647468483   -0.1700
     28 F28        -0.8709    4.5165   50.8485 F       1  ZINC000647468483   -0.1700
     29 C29        -0.4728    4.0903   48.1456 C.ar    1  ZINC000647468483   -0.1100
     30 C30         2.9047   -0.1036   47.4203 C.3     1  ZINC000647468483   -0.1200
     31 H31         1.9932    0.7079   49.9744 H       1  ZINC000647468483    0.0800
     32 H32         3.6831    0.8813   50.5438 H       1  ZINC000647468483    0.0800
     33 H33         2.4527    2.7178   48.8735 H       1  ZINC000647468483    0.0700
     34 H34         4.2155    2.4286   48.8803 H       1  ZINC000647468483    0.1000
     35 H35         4.0585    4.0252   45.0604 H       1  ZINC000647468483    0.1000
     36 H36         3.1780    2.5860   44.4733 H       1  ZINC000647468483    0.0900
     37 H37         2.5312    5.5075   44.0943 H       1  ZINC000647468483    0.0800
     38 H38         2.1909    4.1178   43.0159 H       1  ZINC000647468483    0.0900
     39 H39         0.1643    5.2077   44.4210 H       1  ZINC000647468483    0.0900
     40 H40         0.2946    3.4201   44.3321 H       1  ZINC000647468483    0.0800
     41 H41        -0.3450    2.1208   45.4101 H       1  ZINC000647468483    0.1400
     42 H42        -2.1898    1.0133   46.6076 H       1  ZINC000647468483    0.1500
     43 H43        -2.9369    1.8784   48.7884 H       1  ZINC000647468483    0.1500
     44 H44         0.0089    4.9553   48.5771 H       1  ZINC000647468483    0.1400
     45 H45         3.4516   -0.6484   46.6507 H       1  ZINC000647468483    0.0900
     46 H46         1.8389   -0.3246   47.3609 H       1  ZINC000647468483    0.1000
@<TRIPOS>BOND
     1     1     2   ar
     2     2     3   ar
     3     2     4    1
     4     4     5    1
     5     4    30    1
     6     4     6    1
     7     6     7    1
     8     6    31    1
     9     6    32    1
    10     7     8    1
    11     7    33    1
    12     7    34    1
    13     8     9    1
    14     8    10    1
    15     8    30    1
    16    10    11    1
    17    10    12    1
    18    10    13    1
    19    13    14    1
    20    13    18    1
    21    13    15    1
    22    15    16    1
    23    15    35    1
    24    15    36    1
    25    16    17    1
    26    16    37    1
    27    16    38    1
    28    17    18    1
    29    17    39    1
    30    17    40    1
    31    18    19    1
    32    18    20    1
    33    20    29   ar
    34    20    21   ar
    35    21    22   ar
    36    21    41    1
    37    22    23   ar
    38    22    42    1
    39    23    24   ar
    40    23    43    1
    41    24    25    1
    42    24    29   ar
    43    25    26    1
    44    25    27    1
    45    25    28    1
    46    29    44    1
    47    30    45    1
    48    30    46    1
@<TRIPOS>SUBSTRUCTURE
     1 ZINC000647468483        1 TEMP              0 ****  ****    0 ROOT


##########                                Name:    ZINC000840649129
##########                DOCK_Rotatable_Bonds:                   8
##########                         Heavy_Atoms:                  26
##########                    Molecular_Weight:             376.839
##########                DOCK_Rotatable_Bonds:                   8
##########                       Formal_Charge:          -0.0199998
##########                     HBond_Acceptors:                   7
##########                        HBond_Donors:                   3
##########                         Heavy_Atoms:                  26
##########                          Grid_Score:          -26.093220
##########                     Grid_vdw_energy:          -24.927589
##########                      Grid_es_energy:           -1.165631
##########           Internal_energy_repulsive:           26.477278

@<TRIPOS>MOLECULE
ZINC000840649129
 47 48 1 0 0
SMALL
USER_CHARGES


@<TRIPOS>ATOM
      1 C1         -5.8079    1.3324   50.5139 C.3     1  ZINC000840649129    0.0200
      2 O2         -4.9873    2.0380   49.5807 O.3     1  ZINC000840649129   -0.2900
      3 C3         -4.4049    3.1842   50.0160 C.ar    1  ZINC000840649129    0.1400
      4 C4         -5.0624    3.9945   50.9288 C.ar    1  ZINC000840649129   -0.1700
      5 C5         -4.4719    5.1606   51.3726 C.ar    1  ZINC000840649129   -0.1200
      6 C6         -3.2142    5.5318   50.9090 C.ar    1  ZINC000840649129    0.1700
      7 N7         -2.6235    6.7159   51.3649 N.pl3   1  ZINC000840649129   -0.8800
      8 C8         -2.5450    4.7325   49.9983 C.ar    1  ZINC000840649129   -0.1000
      9 C9         -3.1348    3.5485   49.5479 C.ar    1  ZINC000840649129   -0.1200
     10 C10        -2.4287    2.6915   48.5785 C.2     1  ZINC000840649129    0.5100
     11 O11        -2.6821    1.5044   48.5195 O.2     1  ZINC000840649129   -0.4800
     12 O12        -1.5023    3.2242   47.7577 O.3     1  ZINC000840649129   -0.3200
     13 C13        -0.2748    2.4711   47.5720 C.3     1  ZINC000840649129    0.0800
     14 H14        -0.5085    1.4094   47.4923 H       1  ZINC000840649129    0.1200
     15 C15         0.6367    2.6978   48.7505 C.2     1  ZINC000840649129    0.5200
     16 O16         0.6470    3.7732   49.3112 O.2     1  ZINC000840649129   -0.4900
     17 N17         1.4404    1.7055   49.1813 N.am    1  ZINC000840649129   -0.6600
     18 C18         2.2872    1.9159   50.2760 C.ar    1  ZINC000840649129    0.1600
     19 C19         1.7700    2.3870   51.4749 C.ar    1  ZINC000840649129   -0.1400
     20 C20         2.6081    2.5934   52.5538 C.ar    1  ZINC000840649129   -0.0900
     21 C21         3.9608    2.3313   52.4408 C.ar    1  ZINC000840649129   -0.1300
     22 C22         4.4802    1.8623   51.2478 C.ar    1  ZINC000840649129   -0.0900
     23 C23         3.6467    1.6483   50.1667 C.ar    1  ZINC000840649129   -0.0700
     24 Cl24        4.2989    1.0589   48.6695 Cl      1  ZINC000840649129   -0.0700
     25 C25         0.4211    2.9377   46.2918 C.3     1  ZINC000840649129   -0.1100
     26 C26         0.6581    4.4477   46.3617 C.3     1  ZINC000840649129   -0.1600
     27 C27         1.7632    2.2170   46.1492 C.3     1  ZINC000840649129   -0.1500
     28 H28        -6.2108    0.4375   50.0393 H       1  ZINC000840649129    0.1000
     29 H29        -5.2106    1.0469   51.3797 H       1  ZINC000840649129    0.0600
     30 H30        -6.6285    1.9745   50.8341 H       1  ZINC000840649129    0.0600
     31 H31        -6.0392    3.7128   51.2931 H       1  ZINC000840649129    0.1400
     32 H32        -4.9894    5.7882   52.0832 H       1  ZINC000840649129    0.1300
     33 H33        -3.0912    7.2767   52.0034 H       1  ZINC000840649129    0.4000
     34 H34        -1.7464    6.9759   51.0423 H       1  ZINC000840649129    0.4000
     35 H35        -1.5683    5.0215   49.6393 H       1  ZINC000840649129    0.1400
     36 H36         1.4322    0.8453   48.7330 H       1  ZINC000840649129    0.4200
     37 H37         0.7135    2.5924   51.5643 H       1  ZINC000840649129    0.1700
     38 H38         2.2060    2.9602   53.4866 H       1  ZINC000840649129    0.1300
     39 H39         4.6135    2.4936   53.2858 H       1  ZINC000840649129    0.1300
     40 H40         5.5374    1.6589   51.1626 H       1  ZINC000840649129    0.1400
     41 H41        -0.2079    2.7080   45.4319 H       1  ZINC000840649129    0.0900
     42 H42         1.1785    4.6914   47.2879 H       1  ZINC000840649129    0.0700
     43 H43         1.2643    4.7600   45.5114 H       1  ZINC000840649129    0.0800
     44 H44        -0.2997    4.9673   46.3354 H       1  ZINC000840649129    0.0600
     45 H45         1.5944    1.1412   46.0994 H       1  ZINC000840649129    0.0500
     46 H46         2.2590    2.5494   45.2372 H       1  ZINC000840649129    0.0600
     47 H47         2.3923    2.4466   47.0092 H       1  ZINC000840649129    0.0700
@<TRIPOS>BOND
     1     1     2    1
     2     1    28    1
     3     1    29    1
     4     1    30    1
     5     2     3    1
     6     3     9   ar
     7     3     4   ar
     8     4     5   ar
     9     4    31    1
    10     5     6   ar
    11     5    32    1
    12     6     7    1
    13     6     8   ar
    14     7    33    1
    15     7    34    1
    16     8     9   ar
    17     8    35    1
    18     9    10    1
    19    10    11    2
    20    10    12    1
    21    12    13    1
    22    13    14    1
    23    13    15    1
    24    13    25    1
    25    15    16    2
    26    15    17   am
    27    17    18    1
    28    17    36    1
    29    18    23   ar
    30    18    19   ar
    31    19    20   ar
    32    19    37    1
    33    20    21   ar
    34    20    38    1
    35    21    22   ar
    36    21    39    1
    37    22    23   ar
    38    22    40    1
    39    23    24    1
    40    25    26    1
    41    25    27    1
    42    25    41    1
    43    26    42    1
    44    26    43    1
    45    26    44    1
    46    27    45    1
    47    27    46    1
    48    27    47    1
@<TRIPOS>SUBSTRUCTURE
     1 ZINC000840649129        1 TEMP              0 ****  ****    0 ROOT


##########                                Name:    ZINC000587344575
##########                DOCK_Rotatable_Bonds:                   7
##########                         Heavy_Atoms:                  30
##########                    Molecular_Weight:             408.475
##########                DOCK_Rotatable_Bonds:                   7
##########                       Formal_Charge:          -0.0100002
##########                     HBond_Acceptors:                   7
##########                        HBond_Donors:                   2
##########                         Heavy_Atoms:                  30
##########                          Grid_Score:          -26.092175
##########                     Grid_vdw_energy:          -26.369219
##########                      Grid_es_energy:            0.277045
##########           Internal_energy_repulsive:           13.719377

@<TRIPOS>MOLECULE
ZINC000587344575
 55 57 1 0 0
SMALL
USER_CHARGES


@<TRIPOS>ATOM
      1 C1         -9.7556    0.8437   60.5407 C.3     1  ZINC000587344575   -0.1200
      2 C2         -9.2574    2.2570   60.3819 C.ar    1  ZINC000587344575    0.0000
      3 C3         -8.9620    2.7470   59.1299 C.ar    1  ZINC000587344575   -0.1600
      4 C4         -8.5024    4.0520   58.9823 C.ar    1  ZINC000587344575    0.1800
      5 N5         -8.2045    4.5452   57.7125 N.am    1  ZINC000587344575   -0.6700
      6 C6         -7.0074    4.2833   57.1516 C.2     1  ZINC000587344575    0.5200
      7 O7         -6.1892    3.6187   57.7513 O.2     1  ZINC000587344575   -0.5000
      8 C8         -6.6854    4.8163   55.7793 C.3     1  ZINC000587344575   -0.1200
      9 H9         -6.0809    5.7200   55.8573 H       1  ZINC000587344575    0.1100
     10 C10        -7.9871    5.1075   54.9978 C.3     1  ZINC000587344575   -0.1200
     11 C11        -7.6396    4.6440   53.5608 C.3     1  ZINC000587344575    0.0400
     12 N12        -6.8057    3.4356   53.7857 N.3     1  ZINC000587344575   -0.4800
     13 C13        -6.0348    3.1446   52.6622 C.ar    1  ZINC000587344575    0.0700
     14 C14        -5.1668    4.1025   52.1493 C.ar    1  ZINC000587344575   -0.1200
     15 C15        -4.4034    3.8188   51.0386 C.ar    1  ZINC000587344575   -0.0700
     16 C16        -4.5006    2.5664   50.4261 C.ar    1  ZINC000587344575    0.0000
     17 C17        -3.7075    2.2690   49.2714 C.1     1  ZINC000587344575    0.2500
     18 N18        -3.0786    2.0329   48.3554 N.1     1  ZINC000587344575   -0.4000
     19 C19        -5.3737    1.6041   50.9435 C.ar    1  ZINC000587344575   -0.1000
     20 C20        -6.1310    1.8923   52.0581 C.ar    1  ZINC000587344575    0.1300
     21 F21        -6.9745    0.9638   52.5596 F       1  ZINC000587344575   -0.1200
     22 C22        -5.9466    3.7489   54.9510 C.3     1  ZINC000587344575    0.0500
     23 C23        -8.3399    4.8660   60.0987 C.ar    1  ZINC000587344575   -0.1400
     24 C24        -8.6336    4.3823   61.3539 C.ar    1  ZINC000587344575   -0.0600
     25 C25        -9.1004    3.0739   61.5051 C.ar    1  ZINC000587344575   -0.1600
     26 C26        -9.4167    2.5521   62.8491 C.2     1  ZINC000587344575    0.5600
     27 O27       -10.5732    2.3548   63.1679 O.2     1  ZINC000587344575   -0.5300
     28 N28        -8.4234    2.2946   63.7229 N.am    1  ZINC000587344575   -0.7200
     29 C29        -8.7375    1.7784   65.0575 C.3     1  ZINC000587344575    0.1400
     30 C30        -8.9314    0.2625   64.9855 C.3     1  ZINC000587344575   -0.1600
     31 C31        -7.5864    2.1005   66.0128 C.3     1  ZINC000587344575   -0.1600
     32 H32       -10.8441    0.8462   60.5966 H       1  ZINC000587344575    0.0800
     33 H33        -9.4371    0.2479   59.6853 H       1  ZINC000587344575    0.0600
     34 H34        -9.3457    0.4146   61.4551 H       1  ZINC000587344575    0.1000
     35 H35        -9.0867    2.1175   58.2611 H       1  ZINC000587344575    0.1300
     36 H36        -8.8589    5.0768   57.2329 H       1  ZINC000587344575    0.4100
     37 H37        -8.8169    4.5264   55.4003 H       1  ZINC000587344575    0.0900
     38 H38        -8.2170    6.1728   55.0145 H       1  ZINC000587344575    0.0900
     39 H39        -8.5446    4.3897   53.0090 H       1  ZINC000587344575    0.0900
     40 H40        -7.0708    5.4117   53.0360 H       1  ZINC000587344575    0.0600
     41 H41        -5.0915    5.0705   52.6225 H       1  ZINC000587344575    0.1400
     42 H42        -3.7303    4.5640   50.6410 H       1  ZINC000587344575    0.1400
     43 H43        -5.4512    0.6353   50.4726 H       1  ZINC000587344575    0.1500
     44 H44        -4.9870    4.1382   54.6109 H       1  ZINC000587344575    0.0600
     45 H45        -5.7946    2.8523   55.5520 H       1  ZINC000587344575    0.1100
     46 H46        -7.9827    5.8783   59.9808 H       1  ZINC000587344575    0.1400
     47 H47        -8.5073    5.0147   62.2202 H       1  ZINC000587344575    0.1300
     48 H48        -7.5007    2.4510   63.4682 H       1  ZINC000587344575    0.4000
     49 H49        -9.6529    2.2449   65.4214 H       1  ZINC000587344575    0.0900
     50 H50        -8.0159   -0.2040   64.6216 H       1  ZINC000587344575    0.0600
     51 H51        -9.1650   -0.1215   65.9784 H       1  ZINC000587344575    0.0700
     52 H52        -9.7514    0.0330   64.3050 H       1  ZINC000587344575    0.0600
     53 H53        -6.6709    1.6340   65.6489 H       1  ZINC000587344575    0.0600
     54 H54        -7.4483    3.1804   66.0641 H       1  ZINC000587344575    0.0600
     55 H55        -7.8201    1.7165   67.0057 H       1  ZINC000587344575    0.0700
@<TRIPOS>BOND
     1     1     2    1
     2     1    32    1
     3     1    33    1
     4     1    34    1
     5     2    25   ar
     6     2     3   ar
     7     3     4   ar
     8     3    35    1
     9     4     5    1
    10     4    23   ar
    11     5     6   am
    12     5    36    1
    13     6     7    2
    14     6     8    1
    15     8     9    1
    16     8    22    1
    17     8    10    1
    18    10    11    1
    19    10    37    1
    20    10    38    1
    21    11    12    1
    22    11    39    1
    23    11    40    1
    24    12    13    1
    25    12    22    1
    26    13    20   ar
    27    13    14   ar
    28    14    15   ar
    29    14    41    1
    30    15    16   ar
    31    15    42    1
    32    16    17    1
    33    16    19   ar
    34    17    18    3
    35    19    20   ar
    36    19    43    1
    37    20    21    1
    38    22    44    1
    39    22    45    1
    40    23    24   ar
    41    23    46    1
    42    24    25   ar
    43    24    47    1
    44    25    26    1
    45    26    27    2
    46    26    28   am
    47    28    29    1
    48    28    48    1
    49    29    30    1
    50    29    31    1
    51    29    49    1
    52    30    50    1
    53    30    51    1
    54    30    52    1
    55    31    53    1
    56    31    54    1
    57    31    55    1
@<TRIPOS>SUBSTRUCTURE
     1 ZINC000587344575        1 TEMP              0 ****  ****    0 ROOT


##########                                Name:    ZINC001064463188
##########                DOCK_Rotatable_Bonds:                   6
##########                         Heavy_Atoms:                  25
##########                    Molecular_Weight:             342.441
##########                DOCK_Rotatable_Bonds:                   6
##########                       Formal_Charge:          -0.0100004
##########                     HBond_Acceptors:                   6
##########                        HBond_Donors:                   0
##########                         Heavy_Atoms:                  25
##########                          Grid_Score:          -26.078297
##########                     Grid_vdw_energy:          -25.469790
##########                      Grid_es_energy:           -0.608507
##########           Internal_energy_repulsive:           17.003059

@<TRIPOS>MOLECULE
ZINC001064463188
 51 54 1 0 0
SMALL
USER_CHARGES


@<TRIPOS>ATOM
      1 C1        -10.8692   -3.2043   56.2046 C.3     1  ZINC001064463188    0.0400
      2 O2        -11.3256   -4.3246   56.9653 O.3     1  ZINC001064463188   -0.3000
      3 C3        -12.6626   -4.4342   57.1574 C.ar    1  ZINC001064463188    0.3900
      4 C4        -13.3780   -5.4762   56.5696 C.ar    1  ZINC001064463188   -0.2800
      5 C5        -14.7403   -5.5492   56.7925 C.ar    1  ZINC001064463188    0.2000
      6 N6        -15.3221   -4.6338   57.5525 N.ar    1  ZINC001064463188   -0.5800
      7 C7        -14.6162   -3.6545   58.0983 C.ar    1  ZINC001064463188    0.5300
      8 N8        -15.2599   -2.7170   58.8870 N.3     1  ZINC001064463188   -0.4500
      9 C9        -15.7109   -1.5806   58.0869 C.3     1  ZINC001064463188    0.0700
     10 C10       -15.4025   -0.2666   58.8146 C.3     1  ZINC001064463188   -0.1200
     11 C11       -16.2253   -0.1099   60.0791 C.3     1  ZINC001064463188    0.1400
     12 H12       -15.9380    0.8044   60.5983 H       1  ZINC001064463188    0.0900
     13 C13       -17.7251   -0.0886   59.7772 C.3     1  ZINC001064463188   -0.1300
     14 C14       -18.1454   -1.5676   59.8403 C.3     1  ZINC001064463188   -0.1300
     15 C15       -17.0020   -2.2797   60.5714 C.3     1  ZINC001064463188    0.1200
     16 H16       -17.3847   -2.7609   61.4715 H       1  ZINC001064463188    0.0900
     17 C17       -16.3691   -3.3397   59.6567 C.3     1  ZINC001064463188    0.0600
     18 N18       -15.9527   -1.2941   60.9456 N.am    1  ZINC001064463188   -0.6000
     19 C19       -14.9769   -1.4467   61.8628 C.2     1  ZINC001064463188    0.5800
     20 O20       -14.8904   -2.4840   62.4917 O.2     1  ZINC001064463188   -0.5400
     21 C21       -14.0166   -0.3586   62.1030 C.2     1  ZINC001064463188   -0.2200
     22 C22       -12.7767   -0.4497   61.6307 C.2     1  ZINC001064463188    0.0000
     23 C23       -12.3556   -1.6675   60.8493 C.3     1  ZINC001064463188   -0.1300
     24 C24       -11.7929    0.6650   61.8768 C.3     1  ZINC001064463188   -0.1200
     25 C25       -10.3495    0.2745   62.2011 C.3     1  ZINC001064463188   -0.1900
     26 C26       -10.6909    0.8771   60.8369 C.3     1  ZINC001064463188   -0.1600
     27 N27       -13.3085   -3.5539   57.9127 N.ar    1  ZINC001064463188   -0.5900
     28 H28       -11.1705   -2.2814   56.7003 H       1  ZINC001064463188    0.0600
     29 H29        -9.7825   -3.2366   56.1264 H       1  ZINC001064463188    0.1000
     30 H30       -11.3065   -3.2402   55.2068 H       1  ZINC001064463188    0.0600
     31 H31       -12.8793   -6.2098   55.9535 H       1  ZINC001064463188    0.1500
     32 H32       -15.3239   -6.3438   56.3514 H       1  ZINC001064463188    0.1800
     33 H33       -15.1982   -1.5899   57.1251 H       1  ZINC001064463188    0.0800
     34 H34       -16.7855   -1.6587   57.9219 H       1  ZINC001064463188    0.0600
     35 H35       -14.3444   -0.2459   59.0754 H       1  ZINC001064463188    0.0800
     36 H36       -15.6175    0.5673   58.1463 H       1  ZINC001064463188    0.0800
     37 H37       -18.2576    0.4916   60.5307 H       1  ZINC001064463188    0.0800
     38 H38       -17.9080    0.3177   58.7823 H       1  ZINC001064463188    0.0900
     39 H39       -19.0752   -1.6729   60.3993 H       1  ZINC001064463188    0.0800
     40 H40       -18.2603   -1.9713   58.8343 H       1  ZINC001064463188    0.0800
     41 H41       -17.1166   -3.7104   58.9555 H       1  ZINC001064463188    0.0700
     42 H42       -15.9914   -4.1647   60.2608 H       1  ZINC001064463188    0.0900
     43 H43       -14.3185    0.5142   62.6630 H       1  ZINC001064463188    0.1200
     44 H44       -12.5525   -1.5053   59.7896 H       1  ZINC001064463188    0.0800
     45 H45       -11.2904   -1.8442   60.9981 H       1  ZINC001064463188    0.0800
     46 H46       -12.9194   -2.5340   61.1952 H       1  ZINC001064463188    0.0700
     47 H47       -12.1979    1.5495   62.3685 H       1  ZINC001064463188    0.1400
     48 H48        -9.8048    0.9021   62.9065 H       1  ZINC001064463188    0.1000
     49 H49       -10.1116   -0.7885   62.2365 H       1  ZINC001064463188    0.1000
     50 H50       -10.6775    0.2104   59.9747 H       1  ZINC001064463188    0.0900
     51 H51       -10.3706    1.9011   60.6446 H       1  ZINC001064463188    0.1000
@<TRIPOS>BOND
     1     1     2    1
     2     1    28    1
     3     1    29    1
     4     1    30    1
     5     2     3    1
     6     3    27   ar
     7     3     4   ar
     8     4     5   ar
     9     4    31    1
    10     5     6   ar
    11     5    32    1
    12     6     7   ar
    13     7     8    1
    14     7    27   ar
    15     8    17    1
    16     8     9    1
    17     9    10    1
    18     9    33    1
    19     9    34    1
    20    10    11    1
    21    10    35    1
    22    10    36    1
    23    11    12    1
    24    11    18    1
    25    11    13    1
    26    13    14    1
    27    13    37    1
    28    13    38    1
    29    14    15    1
    30    14    39    1
    31    14    40    1
    32    15    16    1
    33    15    17    1
    34    15    18    1
    35    17    41    1
    36    17    42    1
    37    18    19   am
    38    19    20    2
    39    19    21    1
    40    21    22    2
    41    21    43    1
    42    22    23    1
    43    22    24    1
    44    23    44    1
    45    23    45    1
    46    23    46    1
    47    24    26    1
    48    24    25    1
    49    24    47    1
    50    25    26    1
    51    25    48    1
    52    25    49    1
    53    26    50    1
    54    26    51    1
@<TRIPOS>SUBSTRUCTURE
     1 ZINC001064463188        1 TEMP              0 ****  ****    0 ROOT


##########                                Name:    ZINC000011498449
##########                DOCK_Rotatable_Bonds:                   5
##########                         Heavy_Atoms:                  21
##########                    Molecular_Weight:             331.198
##########                DOCK_Rotatable_Bonds:                   5
##########                       Formal_Charge:         1.30385e-07
##########                     HBond_Acceptors:                   7
##########                        HBond_Donors:                   1
##########                         Heavy_Atoms:                  21
##########                          Grid_Score:          -26.076712
##########                     Grid_vdw_energy:          -25.448723
##########                      Grid_es_energy:           -0.627988
##########           Internal_energy_repulsive:           13.372019

@<TRIPOS>MOLECULE
ZINC000011498449
 37 38 1 0 0
SMALL
USER_CHARGES


@<TRIPOS>ATOM
      1 C1          3.7005   -1.9977   50.3640 C.3     1  ZINC000011498449   -0.1500
      2 C2          3.7413   -0.8344   49.3709 C.3     1  ZINC000011498449    0.0700
      3 H3          4.5888   -0.1889   49.6010 H       1  ZINC000011498449    0.0600
      4 C4          2.4412   -0.0284   49.4730 C.3     1  ZINC000011498449    0.0800
      5 N5          2.4239    0.9639   48.3865 N.am    1  ZINC000011498449   -0.6100
      6 C6          2.1699    2.2634   48.6378 C.2     1  ZINC000011498449    0.5100
      7 O7          2.1585    3.0659   47.7285 O.2     1  ZINC000011498449   -0.5300
      8 C8          1.8998    2.7192   50.0485 C.3     1  ZINC000011498449    0.1000
      9 N9          0.5015    2.4471   50.3904 N.am    1  ZINC000011498449   -0.7200
     10 C10        -0.4468    3.3701   50.1346 C.2     1  ZINC000011498449    0.5600
     11 O11        -0.1421    4.4278   49.6188 O.2     1  ZINC000011498449   -0.5100
     12 C12        -1.8564    3.0963   50.4809 C.ar    1  ZINC000011498449   -0.1300
     13 C13        -2.3375    3.4027   51.7554 C.ar    1  ZINC000011498449   -0.0600
     14 C14        -3.6543    3.1453   52.0727 C.ar    1  ZINC000011498449   -0.1100
     15 C15        -4.5006    2.5840   51.1304 C.ar    1  ZINC000011498449    0.0000
     16 Cl16       -6.1573    2.2638   51.5385 Cl      1  ZINC000011498449   -0.0400
     17 C17        -4.0309    2.2774   49.8645 C.ar    1  ZINC000011498449   -0.1100
     18 C18        -2.7159    2.5350   49.5323 C.ar    1  ZINC000011498449    0.0300
     19 Cl19       -2.1280    2.1504   47.9449 Cl      1  ZINC000011498449   -0.0100
     20 C20         2.6928    0.4955   47.0176 C.3     1  ZINC000011498449    0.0700
     21 C21         3.9804   -0.3360   47.0352 C.3     1  ZINC000011498449    0.0500
     22 O22         3.8766   -1.3451   48.0425 O.3     1  ZINC000011498449   -0.3700
     23 H23         4.6244   -2.5714   50.2896 H       1  ZINC000011498449    0.0700
     24 H24         3.5955   -1.6076   51.3763 H       1  ZINC000011498449    0.0800
     25 H25         2.8527   -2.6428   50.1334 H       1  ZINC000011498449    0.0700
     26 H26         1.5861   -0.6969   49.3733 H       1  ZINC000011498449    0.0800
     27 H27         2.3995    0.4807   50.4359 H       1  ZINC000011498449    0.1000
     28 H28         2.5530    2.1813   50.7356 H       1  ZINC000011498449    0.1000
     29 H29         2.0915    3.7893   50.1276 H       1  ZINC000011498449    0.1000
     30 H30         0.2580    1.6025   50.8009 H       1  ZINC000011498449    0.4100
     31 H31        -1.6792    3.8400   52.4914 H       1  ZINC000011498449    0.1500
     32 H32        -4.0269    3.3817   53.0584 H       1  ZINC000011498449    0.1500
     33 H33        -4.6955    1.8399   49.1343 H       1  ZINC000011498449    0.1500
     34 H34         1.8629   -0.1202   46.6707 H       1  ZINC000011498449    0.0900
     35 H35         2.8176    1.3516   46.3545 H       1  ZINC000011498449    0.1000
     36 H36         4.1236   -0.8062   46.0623 H       1  ZINC000011498449    0.1100
     37 H37         4.8290    0.3116   47.2559 H       1  ZINC000011498449    0.0600
@<TRIPOS>BOND
     1     1     2    1
     2     1    23    1
     3     1    24    1
     4     1    25    1
     5     2     3    1
     6     2    22    1
     7     2     4    1
     8     4     5    1
     9     4    26    1
    10     4    27    1
    11     5     6   am
    12     5    20    1
    13     6     7    2
    14     6     8    1
    15     8     9    1
    16     8    28    1
    17     8    29    1
    18     9    10   am
    19     9    30    1
    20    10    11    2
    21    10    12    1
    22    12    18   ar
    23    12    13   ar
    24    13    14   ar
    25    13    31    1
    26    14    15   ar
    27    14    32    1
    28    15    16    1
    29    15    17   ar
    30    17    18   ar
    31    17    33    1
    32    18    19    1
    33    20    21    1
    34    20    34    1
    35    20    35    1
    36    21    22    1
    37    21    36    1
    38    21    37    1
@<TRIPOS>SUBSTRUCTURE
     1 ZINC000011498449        1 TEMP              0 ****  ****    0 ROOT


##########                                Name:    ZINC000516003207
##########                DOCK_Rotatable_Bonds:                   5
##########                         Heavy_Atoms:                  24
##########                    Molecular_Weight:             342.462
##########                DOCK_Rotatable_Bonds:                   5
##########                       Formal_Charge:          -0.0200001
##########                     HBond_Acceptors:                   5
##########                        HBond_Donors:                   1
##########                         Heavy_Atoms:                  24
##########                          Grid_Score:          -26.075422
##########                     Grid_vdw_energy:          -25.711306
##########                      Grid_es_energy:           -0.364116
##########           Internal_energy_repulsive:            6.316249

@<TRIPOS>MOLECULE
ZINC000516003207
 46 49 1 0 0
SMALL
USER_CHARGES


@<TRIPOS>ATOM
      1 C1         -9.8916   -4.0608   58.2634 C.3     1  ZINC000516003207    0.0300
      2 O2        -10.7058   -4.1229   57.0907 O.3     1  ZINC000516003207   -0.3600
      3 C3        -11.6549   -3.0598   56.9852 C.3     1  ZINC000516003207    0.0900
      4 H4        -11.9591   -2.6653   57.9546 H       1  ZINC000516003207    0.0800
      5 C5        -11.2533   -1.9712   55.9735 C.3     1  ZINC000516003207   -0.1700
      6 C6        -11.9994   -2.7912   54.9053 C.3     1  ZINC000516003207    0.1500
      7 H7        -11.3724   -3.5265   54.4013 H       1  ZINC000516003207    0.1200
      8 N8        -12.7786   -1.9722   53.9733 N.am    1  ZINC000516003207   -0.7200
      9 C9        -12.1670   -1.3632   52.9381 C.2     1  ZINC000516003207    0.5600
     10 O10       -10.9695   -1.4948   52.7768 O.2     1  ZINC000516003207   -0.5300
     11 C11       -12.9530   -0.5352   51.9984 C.ar    1  ZINC000516003207   -0.1400
     12 C12       -14.3476   -0.6013   52.0054 C.ar    1  ZINC000516003207   -0.0800
     13 C13       -15.0819    0.1714   51.1278 C.ar    1  ZINC000516003207   -0.1200
     14 C14       -14.4430    1.0136   50.2393 C.ar    1  ZINC000516003207   -0.0800
     15 C15       -13.0503    1.0891   50.2227 C.ar    1  ZINC000516003207   -0.0300
     16 C16       -12.3666    1.9948   49.2670 C.2     1  ZINC000516003207    0.1100
     17 C17       -12.7917    2.1818   48.0013 C.2     1  ZINC000516003207   -0.2600
     18 S18       -11.6988    3.3264   47.2273 S.3     1  ZINC000516003207    0.1400
     19 C19       -10.7826    3.4439   48.6653 C.2     1  ZINC000516003207    0.0600
     20 C20        -9.5588    4.3068   48.8362 C.3     1  ZINC000516003207   -0.0800
     21 N21       -11.2875    2.6955   49.5840 N.2     1  ZINC000516003207   -0.4700
     22 C22       -12.3038    0.3178   51.1073 C.ar    1  ZINC000516003207   -0.0300
     23 C23       -12.8273   -3.3739   56.0552 C.3     1  ZINC000516003207   -0.1100
     24 C24       -13.4161   -4.7826   55.9709 C.3     1  ZINC000516003207   -0.1200
     25 C25       -14.5446   -4.2720   56.8851 C.3     1  ZINC000516003207   -0.1400
     26 C26       -14.2359   -2.8600   56.3550 C.3     1  ZINC000516003207   -0.1200
     27 H27       -10.5256   -4.1067   59.1488 H       1  ZINC000516003207    0.0400
     28 H28        -9.1981   -4.9017   58.2692 H       1  ZINC000516003207    0.0900
     29 H29        -9.3299   -3.1266   58.2667 H       1  ZINC000516003207    0.0400
     30 H30       -11.7073   -1.0007   56.1740 H       1  ZINC000516003207    0.0900
     31 H31       -10.1785   -1.9091   55.8034 H       1  ZINC000516003207    0.0800
     32 H32       -13.7344   -1.8683   54.1013 H       1  ZINC000516003207    0.4000
     33 H33       -14.8528   -1.2581   52.6981 H       1  ZINC000516003207    0.1300
     34 H34       -16.1605    0.1166   51.1362 H       1  ZINC000516003207    0.1400
     35 H35       -15.0231    1.6151   49.5551 H       1  ZINC000516003207    0.1300
     36 H36       -13.6499    1.7128   47.5431 H       1  ZINC000516003207    0.1800
     37 H37        -9.3553    4.8368   47.9058 H       1  ZINC000516003207    0.0800
     38 H38        -9.7316    5.0281   49.6349 H       1  ZINC000516003207    0.0900
     39 H39        -8.7047    3.6796   49.0915 H       1  ZINC000516003207    0.0900
     40 H40       -11.2252    0.3730   51.0979 H       1  ZINC000516003207    0.1500
     41 H41       -13.7532   -5.0567   54.9712 H       1  ZINC000516003207    0.0800
     42 H42       -12.7907   -5.5466   56.4328 H       1  ZINC000516003207    0.0800
     43 H43       -15.5323   -4.6370   56.6039 H       1  ZINC000516003207    0.0700
     44 H44       -14.3341   -4.3945   57.9476 H       1  ZINC000516003207    0.0800
     45 H45       -14.2654   -2.0879   57.1239 H       1  ZINC000516003207    0.0700
     46 H46       -14.8034   -2.5936   55.4633 H       1  ZINC000516003207    0.0900
@<TRIPOS>BOND
     1     1     2    1
     2     1    27    1
     3     1    28    1
     4     1    29    1
     5     2     3    1
     6     3     4    1
     7     3    23    1
     8     3     5    1
     9     5     6    1
    10     5    30    1
    11     5    31    1
    12     6     7    1
    13     6     8    1
    14     6    23    1
    15     8     9   am
    16     8    32    1
    17     9    10    2
    18     9    11    1
    19    11    22   ar
    20    11    12   ar
    21    12    13   ar
    22    12    33    1
    23    13    14   ar
    24    13    34    1
    25    14    15   ar
    26    14    35    1
    27    15    16    1
    28    15    22   ar
    29    16    21    1
    30    16    17    2
    31    17    18    1
    32    17    36    1
    33    18    19    1
    34    19    20    1
    35    19    21    2
    36    20    37    1
    37    20    38    1
    38    20    39    1
    39    22    40    1
    40    23    26    1
    41    23    24    1
    42    24    25    1
    43    24    41    1
    44    24    42    1
    45    25    26    1
    46    25    43    1
    47    25    44    1
    48    26    45    1
    49    26    46    1
@<TRIPOS>SUBSTRUCTURE
     1 ZINC000516003207        1 TEMP              0 ****  ****    0 ROOT


##########                                Name:    ZINC000845755710
##########                DOCK_Rotatable_Bonds:                   3
##########                         Heavy_Atoms:                  24
##########                    Molecular_Weight:             349.814
##########                DOCK_Rotatable_Bonds:                   3
##########                       Formal_Charge:         -0.00999974
##########                     HBond_Acceptors:                   6
##########                        HBond_Donors:                   0
##########                         Heavy_Atoms:                  24
##########                          Grid_Score:          -26.052702
##########                     Grid_vdw_energy:          -24.459314
##########                      Grid_es_energy:           -1.593388
##########           Internal_energy_repulsive:           14.701300

@<TRIPOS>MOLECULE
ZINC000845755710
 44 47 1 0 0
SMALL
USER_CHARGES


@<TRIPOS>ATOM
      1 C1          0.3645    3.6639   56.2812 C.3     1  ZINC000845755710   -0.1700
      2 C2         -1.0246    4.2775   56.0946 C.3     1  ZINC000845755710    0.2600
      3 C3         -1.1675    4.8006   54.6639 C.3     1  ZINC000845755710   -0.0900
      4 C4         -1.2364    3.6192   53.6936 C.3     1  ZINC000845755710   -0.1300
      5 C5         -1.3445    4.1470   52.2596 C.3     1  ZINC000845755710    0.1100
      6 N6         -2.4907    5.0626   52.1778 N.am    1  ZINC000845755710   -0.6000
      7 C7         -3.4518    4.8787   51.2510 C.2     1  ZINC000845755710    0.5900
      8 O8         -4.3958    5.6440   51.1936 O.2     1  ZINC000845755710   -0.5200
      9 C9         -3.3593    3.7531   50.3090 C.2     1  ZINC000845755710   -0.2200
     10 C10        -4.1065    2.6160   50.3119 C.2     1  ZINC000845755710    0.0600
     11 O11        -3.7341    1.8247   49.2992 O.3     1  ZINC000845755710   -0.1800
     12 C12        -2.7372    2.3825   48.5811 C.ar    1  ZINC000845755710    0.0500
     13 C13        -2.0253    1.9667   47.4629 C.ar    1  ZINC000845755710   -0.0900
     14 C14        -1.0361    2.7706   46.9374 C.ar    1  ZINC000845755710   -0.0800
     15 C15        -0.7404    3.9969   47.5151 C.ar    1  ZINC000845755710   -0.0400
     16 Cl16        0.5095    4.9938   46.8383 Cl      1  ZINC000845755710   -0.0600
     17 C17        -1.4373    4.4264   48.6259 C.ar    1  ZINC000845755710   -0.0500
     18 C18        -2.4407    3.6252   49.1599 C.ar    1  ZINC000845755710   -0.0900
     19 C19        -2.5695    6.1821   53.1260 C.3     1  ZINC000845755710    0.1000
     20 C20        -2.4476    5.6315   54.5503 C.3     1  ZINC000845755710   -0.1300
     21 O21        -2.0302    3.2810   56.3441 O.3     1  ZINC000845755710   -0.3700
     22 C22        -2.4083    3.4750   57.7282 C.3     1  ZINC000845755710    0.0100
     23 C23        -2.3224    5.0157   57.8649 C.3     1  ZINC000845755710    0.0200
     24 O24        -1.2032    5.3561   57.0220 O.3     1  ZINC000845755710   -0.3800
     25 H25         0.4654    3.2970   57.3026 H       1  ZINC000845755710    0.0600
     26 H26         0.4927    2.8362   55.5835 H       1  ZINC000845755710    0.0800
     27 H27         1.1248    4.4212   56.0903 H       1  ZINC000845755710    0.0800
     28 H28        -0.3074    5.4231   54.4174 H       1  ZINC000845755710    0.0900
     29 H29        -0.3346    3.0147   53.7918 H       1  ZINC000845755710    0.0800
     30 H30        -2.1102    3.0097   53.9239 H       1  ZINC000845755710    0.0800
     31 H31        -0.4312    4.6806   51.9967 H       1  ZINC000845755710    0.0700
     32 H32        -1.4933    3.3131   51.5735 H       1  ZINC000845755710    0.1000
     33 H33        -4.8841    2.3863   51.0253 H       1  ZINC000845755710    0.2200
     34 H34        -2.2465    1.0137   47.0054 H       1  ZINC000845755710    0.1500
     35 H35        -0.4858    2.4424   46.0680 H       1  ZINC000845755710    0.1500
     36 H36        -1.2073    5.3810   49.0758 H       1  ZINC000845755710    0.1400
     37 H37        -1.7561    6.8817   52.9339 H       1  ZINC000845755710    0.0800
     38 H38        -3.5266    6.6911   53.0117 H       1  ZINC000845755710    0.0900
     39 H39        -3.3102    5.0031   54.7725 H       1  ZINC000845755710    0.0700
     40 H40        -2.4081    6.4593   55.2583 H       1  ZINC000845755710    0.0800
     41 H41        -3.4241    3.1232   57.9082 H       1  ZINC000845755710    0.1100
     42 H42        -1.7024    2.9838   58.3980 H       1  ZINC000845755710    0.0800
     43 H43        -3.2359    5.4861   57.5011 H       1  ZINC000845755710    0.0800
     44 H44        -2.1266    5.3003   58.8987 H       1  ZINC000845755710    0.1000
@<TRIPOS>BOND
     1     1     2    1
     2     1    25    1
     3     1    26    1
     4     1    27    1
     5     2    24    1
     6     2     3    1
     7     2    21    1
     8     3    20    1
     9     3     4    1
    10     3    28    1
    11     4     5    1
    12     4    29    1
    13     4    30    1
    14     5     6    1
    15     5    31    1
    16     5    32    1
    17     6     7   am
    18     6    19    1
    19     7     8    2
    20     7     9    1
    21     9    18    1
    22     9    10    2
    23    10    11    1
    24    10    33    1
    25    11    12    1
    26    12    18   ar
    27    12    13   ar
    28    13    14   ar
    29    13    34    1
    30    14    15   ar
    31    14    35    1
    32    15    16    1
    33    15    17   ar
    34    17    18   ar
    35    17    36    1
    36    19    20    1
    37    19    37    1
    38    19    38    1
    39    20    39    1
    40    20    40    1
    41    21    22    1
    42    22    23    1
    43    22    41    1
    44    22    42    1
    45    23    24    1
    46    23    43    1
    47    23    44    1
@<TRIPOS>SUBSTRUCTURE
     1 ZINC000845755710        1 TEMP              0 ****  ****    0 ROOT


##########                                Name:    ZINC000566738344
##########                DOCK_Rotatable_Bonds:                   5
##########                         Heavy_Atoms:                  23
##########                    Molecular_Weight:             352.478
##########                DOCK_Rotatable_Bonds:                   5
##########                       Formal_Charge:           0.0100005
##########                     HBond_Acceptors:                   7
##########                        HBond_Donors:                   0
##########                         Heavy_Atoms:                  23
##########                          Grid_Score:          -26.039799
##########                     Grid_vdw_energy:          -25.991711
##########                      Grid_es_energy:           -0.048088
##########           Internal_energy_repulsive:           27.049231

@<TRIPOS>MOLECULE
ZINC000566738344
 43 44 1 0 0
SMALL
USER_CHARGES


@<TRIPOS>ATOM
      1 C1         -1.9768    4.8799   49.2263 C.3     1  ZINC000566738344   -0.1300
      2 C2         -1.4374    3.9228   48.1949 C.ar    1  ZINC000566738344   -0.0100
      3 C3         -0.3804    4.2946   47.3964 C.ar    1  ZINC000566738344   -0.1000
      4 C4          0.1183    3.4107   46.4426 C.ar    1  ZINC000566738344   -0.0500
      5 S5          1.4717    3.8910   45.4216 S.3     1  ZINC000566738344   -0.0300
      6 C6          2.8648    2.9710   46.1312 C.3     1  ZINC000566738344   -0.1200
      7 H7          2.6221    1.9088   46.1596 H       1  ZINC000566738344    0.1200
      8 C8          4.1104    3.1867   45.2694 C.3     1  ZINC000566738344   -0.1300
      9 C9          3.1310    3.4629   47.5306 C.2     1  ZINC000566738344    0.5200
     10 O10         3.3544    4.6385   47.7279 O.2     1  ZINC000566738344   -0.5000
     11 N11         3.1207    2.5965   48.5629 N.am    1  ZINC000566738344   -0.6000
     12 C12         3.3775    3.0751   49.9235 C.3     1  ZINC000566738344    0.0600
     13 C13         2.8525    1.1761   48.3245 C.3     1  ZINC000566738344    0.1500
     14 H14         2.1556    1.0693   47.4932 H       1  ZINC000566738344    0.1300
     15 C15         4.1681    0.4498   47.9933 C.3     1  ZINC000566738344   -0.1300
     16 C16         3.8706   -1.0693   48.0828 C.3     1  ZINC000566738344   -0.5900
     17 S17         2.8404   -1.1856   49.5943 S.o2    1  ZINC000566738344    2.4000
     18 O18         1.7475   -2.0610   49.3530 O.2     1  ZINC000566738344   -0.9300
     19 O19         3.6800   -1.3956   50.7214 O.2     1  ZINC000566738344   -0.9300
     20 C20         2.2471    0.5429   49.5929 C.3     1  ZINC000566738344   -0.6200
     21 C21        -0.4500    2.1483   46.2943 C.ar    1  ZINC000566738344   -0.1400
     22 C22        -1.5075    1.7704   47.0899 C.ar    1  ZINC000566738344   -0.0400
     23 C23        -2.0070    2.6534   48.0520 C.ar    1  ZINC000566738344   -0.0400
     24 C24        -3.1072    2.2633   48.8815 C.1     1  ZINC000566738344    0.2500
     25 N25        -3.9801    1.9538   49.5396 N.1     1  ZINC000566738344   -0.4100
     26 H26        -1.4463    4.7364   50.1677 H       1  ZINC000566738344    0.0800
     27 H27        -1.8341    5.9040   48.8814 H       1  ZINC000566738344    0.0800
     28 H28        -3.0399    4.6916   49.3760 H       1  ZINC000566738344    0.0700
     29 H29         0.0628    5.2730   47.5092 H       1  ZINC000566738344    0.1400
     30 H30         4.4051    4.2352   45.3127 H       1  ZINC000566738344    0.0800
     31 H31         4.9236    2.5650   45.6439 H       1  ZINC000566738344    0.0800
     32 H32         3.8899    2.9136   44.2375 H       1  ZINC000566738344    0.0900
     33 H33         2.4358    3.3616   50.3918 H       1  ZINC000566738344    0.0700
     34 H34         3.8460    2.2814   50.5054 H       1  ZINC000566738344    0.0800
     35 H35         4.0420    3.9384   49.8856 H       1  ZINC000566738344    0.0800
     36 H36         4.4934    0.7077   46.9855 H       1  ZINC000566738344    0.1100
     37 H37         4.9373    0.7228   48.7157 H       1  ZINC000566738344    0.0900
     38 H38         3.3142   -1.4067   47.2084 H       1  ZINC000566738344    0.1400
     39 H39         4.7933   -1.6380   48.1987 H       1  ZINC000566738344    0.1400
     40 H40         2.5989    1.0645   50.4831 H       1  ZINC000566738344    0.1400
     41 H41         1.1586    0.5693   49.5431 H       1  ZINC000566738344    0.1500
     42 H42        -0.0607    1.4650   45.5540 H       1  ZINC000566738344    0.1200
     43 H43        -1.9481    0.7912   46.9742 H       1  ZINC000566738344    0.1400
@<TRIPOS>BOND
     1     1     2    1
     2     1    26    1
     3     1    27    1
     4     1    28    1
     5     2    23   ar
     6     2     3   ar
     7     3     4   ar
     8     3    29    1
     9     4     5    1
    10     4    21   ar
    11     5     6    1
    12     6     7    1
    13     6     8    1
    14     6     9    1
    15     8    30    1
    16     8    31    1
    17     8    32    1
    18     9    10    2
    19     9    11   am
    20    11    12    1
    21    11    13    1
    22    12    33    1
    23    12    34    1
    24    12    35    1
    25    13    14    1
    26    13    20    1
    27    13    15    1
    28    15    16    1
    29    15    36    1
    30    15    37    1
    31    16    17    1
    32    16    38    1
    33    16    39    1
    34    17    18    2
    35    17    19    2
    36    17    20    1
    37    20    40    1
    38    20    41    1
    39    21    22   ar
    40    21    42    1
    41    22    23   ar
    42    22    43    1
    43    23    24    1
    44    24    25    3
@<TRIPOS>SUBSTRUCTURE
     1 ZINC000566738344        1 TEMP              0 ****  ****    0 ROOT


##########                                Name:    ZINC000010935976
##########                DOCK_Rotatable_Bonds:                   3
##########                         Heavy_Atoms:                  26
##########                    Molecular_Weight:             391.558
##########                DOCK_Rotatable_Bonds:                   3
##########                       Formal_Charge:         -0.00999979
##########                     HBond_Acceptors:                   7
##########                        HBond_Donors:                   1
##########                         Heavy_Atoms:                  26
##########                          Grid_Score:          -25.967325
##########                     Grid_vdw_energy:          -24.365097
##########                      Grid_es_energy:           -1.602228
##########           Internal_energy_repulsive:          128.659363

@<TRIPOS>MOLECULE
ZINC000010935976
 51 54 1 0 0
SMALL
USER_CHARGES


@<TRIPOS>ATOM
      1 C1          0.1633    3.4592   47.8090 C.3     1  ZINC000010935976   -0.0800
      2 C2         -0.7537    3.6103   48.9953 C.2     1  ZINC000010935976   -0.2100
      3 C3         -1.9482    3.0593   49.0872 C.2     1  ZINC000010935976   -0.0400
      4 C4         -2.5336    2.2030   47.9938 C.3     1  ZINC000010935976   -0.1000
      5 C5         -2.6555    3.3408   50.3226 C.2     1  ZINC000010935976   -0.2300
      6 C6         -1.9134    4.1525   51.1778 C.2     1  ZINC000010935976    0.0900
      7 N7         -2.4271    4.5096   52.3716 N.2     1  ZINC000010935976   -0.4900
      8 C8         -3.6163    4.1110   52.7547 C.2     1  ZINC000010935976    0.3400
      9 S9         -4.2268    4.6158   54.3285 S.3     1  ZINC000010935976    0.0500
     10 C10        -2.9070    5.7488   54.8291 C.3     1  ZINC000010935976   -0.1000
     11 H11        -2.6031    6.3564   53.9766 H       1  ZINC000010935976    0.1400
     12 C12        -1.7085    4.9474   55.3428 C.3     1  ZINC000010935976   -0.1000
     13 C13        -2.1695    3.6976   56.0704 C.3     1  ZINC000010935976   -0.1300
     14 C14        -2.9110    3.9801   57.3643 C.3     1  ZINC000010935976   -0.1400
     15 C15        -4.2502    4.6655   57.0867 C.3     1  ZINC000010935976    0.0700
     16 N16        -4.0272    6.1178   57.0002 N.am    1  ZINC000010935976   -0.7200
     17 C17        -3.4027    6.6469   55.9430 C.2     1  ZINC000010935976    0.5400
     18 O18        -3.2293    7.8456   55.8809 O.2     1  ZINC000010935976   -0.5200
     19 N19        -4.3926    3.3149   51.9631 N.am    1  ZINC000010935976   -0.5100
     20 C20        -5.7158    2.8922   52.4284 C.3     1  ZINC000010935976    0.1200
     21 C21        -6.8148    3.6493   51.6545 C.3     1  ZINC000010935976   -0.1300
     22 C22        -7.2072    2.6830   50.5094 C.3     1  ZINC000010935976   -0.1300
     23 C23        -7.1423    1.2958   51.1953 C.3     1  ZINC000010935976   -0.1100
     24 C24        -5.9240    1.3958   52.1364 C.3     1  ZINC000010935976   -0.1200
     25 C25        -3.9476    2.9169   50.7555 C.2     1  ZINC000010935976    0.5600
     26 O26        -4.6367    2.2056   50.0447 O.2     1  ZINC000010935976   -0.5000
     27 S27        -0.3662    4.5352   50.4335 S.3     1  ZINC000010935976    0.2100
     28 H28         1.0865    4.0093   47.9910 H       1  ZINC000010935976    0.0700
     29 H29         0.3925    2.4042   47.6590 H       1  ZINC000010935976    0.0800
     30 H30        -0.3259    3.8549   46.9189 H       1  ZINC000010935976    0.0800
     31 H31        -2.2562    1.1620   48.1598 H       1  ZINC000010935976    0.0700
     32 H32        -3.6196    2.2954   48.0020 H       1  ZINC000010935976    0.0800
     33 H33        -2.1481    2.5323   47.0289 H       1  ZINC000010935976    0.0700
     34 H34        -1.0804    4.6606   54.4993 H       1  ZINC000010935976    0.0900
     35 H35        -1.1286    5.5674   56.0264 H       1  ZINC000010935976    0.0900
     36 H36        -2.8263    3.1324   55.4092 H       1  ZINC000010935976    0.0700
     37 H37        -1.2969    3.0846   56.2962 H       1  ZINC000010935976    0.0800
     38 H38        -3.0907    3.0406   57.8868 H       1  ZINC000010935976    0.0800
     39 H39        -2.3004    4.6280   57.9931 H       1  ZINC000010935976    0.0700
     40 H40        -4.6590    4.3014   56.1440 H       1  ZINC000010935976    0.1100
     41 H41        -4.9463    4.4500   57.8974 H       1  ZINC000010935976    0.0900
     42 H42        -4.3375    6.6964   57.7142 H       1  ZINC000010935976    0.4000
     43 H43        -5.8134    3.0812   53.4975 H       1  ZINC000010935976    0.1000
     44 H44        -7.6713    3.8433   52.3002 H       1  ZINC000010935976    0.0800
     45 H45        -6.4224    4.5818   51.2491 H       1  ZINC000010935976    0.0700
     46 H46        -8.2171    2.8924   50.1563 H       1  ZINC000010935976    0.0600
     47 H47        -6.4904    2.7430   49.6906 H       1  ZINC000010935976    0.1100
     48 H48        -8.0516    1.1098   51.7669 H       1  ZINC000010935976    0.0600
     49 H49        -6.9888    0.5109   50.4548 H       1  ZINC000010935976    0.0700
     50 H50        -5.0406    0.9842   51.6485 H       1  ZINC000010935976    0.0800
     51 H51        -6.1234    0.8587   53.0637 H       1  ZINC000010935976    0.0700
@<TRIPOS>BOND
     1     1     2    1
     2     1    28    1
     3     1    29    1
     4     1    30    1
     5     2    27    1
     6     2     3    2
     7     3     4    1
     8     3     5    1
     9     4    31    1
    10     4    32    1
    11     4    33    1
    12     5    25    1
    13     5     6    2
    14     6     7    1
    15     6    27    1
    16     7     8    2
    17     8     9    1
    18     8    19    1
    19     9    10    1
    20    10    11    1
    21    10    17    1
    22    10    12    1
    23    12    13    1
    24    12    34    1
    25    12    35    1
    26    13    14    1
    27    13    36    1
    28    13    37    1
    29    14    15    1
    30    14    38    1
    31    14    39    1
    32    15    16    1
    33    15    40    1
    34    15    41    1
    35    16    17   am
    36    16    42    1
    37    17    18    2
    38    19    20    1
    39    19    25   am
    40    20    24    1
    41    20    21    1
    42    20    43    1
    43    21    22    1
    44    21    44    1
    45    21    45    1
    46    22    23    1
    47    22    46    1
    48    22    47    1
    49    23    24    1
    50    23    48    1
    51    23    49    1
    52    24    50    1
    53    24    51    1
    54    25    26    2
@<TRIPOS>SUBSTRUCTURE
     1 ZINC000010935976        1 TEMP              0 ****  ****    0 ROOT


##########                                Name:    ZINC001362451754
##########                DOCK_Rotatable_Bonds:                   6
##########                         Heavy_Atoms:                  22
##########                    Molecular_Weight:             339.846
##########                DOCK_Rotatable_Bonds:                   6
##########                       Formal_Charge:         -0.00999987
##########                     HBond_Acceptors:                   7
##########                        HBond_Donors:                   1
##########                         Heavy_Atoms:                  22
##########                          Grid_Score:          -25.959055
##########                     Grid_vdw_energy:          -25.550850
##########                      Grid_es_energy:           -0.408205
##########           Internal_energy_repulsive:           18.602554

@<TRIPOS>MOLECULE
ZINC001362451754
 40 42 1 0 0
SMALL
USER_CHARGES


@<TRIPOS>ATOM
      1 C1         -5.9160    4.5567   52.4531 C.3     1  ZINC001362451754   -0.1700
      2 C2         -5.2472    3.1859   52.3313 C.3     1  ZINC001362451754    0.1400
      3 H3         -4.7017    2.9548   53.2462 H       1  ZINC001362451754    0.0800
      4 C4         -6.3145    2.1027   52.0688 C.3     1  ZINC001362451754   -0.1000
      5 H5         -6.0494    1.1710   52.5686 H       1  ZINC001362451754    0.1000
      6 C6         -7.6962    2.5844   52.5159 C.3     1  ZINC001362451754    0.0900
      7 O7         -8.6650    1.5693   52.2459 O.3     1  ZINC001362451754   -0.5700
      8 C8         -6.2649    1.9323   50.5275 C.3     1  ZINC001362451754   -0.1200
      9 C9         -4.7586    2.1342   50.2385 C.3     1  ZINC001362451754    0.0900
     10 N10        -4.3267    3.1787   51.1849 N.am    1  ZINC001362451754   -0.6100
     11 C11        -3.2670    3.9957   51.0233 C.2     1  ZINC001362451754    0.6100
     12 O12        -3.0030    4.8253   51.8737 O.2     1  ZINC001362451754   -0.5200
     13 C13        -2.4326    3.8849   49.8233 C.2     1  ZINC001362451754   -0.2500
     14 C14        -2.0680    4.9228   49.0127 C.2     1  ZINC001362451754   -0.0500
     15 C15        -1.2856    4.5348   47.9511 C.2     1  ZINC001362451754   -0.1100
     16 C16        -1.0088    3.2266   47.8982 C.2     1  ZINC001362451754   -0.2500
     17 C17        -0.1690    2.5738   46.8308 C.3     1  ZINC001362451754    0.2100
     18 N18         0.7701    1.6372   47.4529 N.pl3   1  ZINC001362451754   -0.3700
     19 C19         1.3169    1.7589   48.6817 C.2     1  ZINC001362451754    0.0700
     20 C20         2.1234    0.6902   48.8817 C.2     1  ZINC001362451754   -0.1800
     21 Cl21        3.0583    0.3688   50.3088 Cl      1  ZINC001362451754   -0.0400
     22 C22         2.0749   -0.1065   47.7324 C.2     1  ZINC001362451754    0.0700
     23 N23         1.2642    0.4602   46.8759 N.2     1  ZINC001362451754   -0.2700
     24 S24        -1.7407    2.3951   49.1959 S.3     1  ZINC001362451754    0.2300
     25 H25        -6.4534    4.7818   51.5319 H       1  ZINC001362451754    0.0600
     26 H26        -6.6157    4.5466   53.2888 H       1  ZINC001362451754    0.0700
     27 H27        -5.1553    5.3181   52.6252 H       1  ZINC001362451754    0.0700
     28 H28        -7.6790    2.7951   53.5852 H       1  ZINC001362451754    0.0500
     29 H29        -7.9586    3.4913   51.9711 H       1  ZINC001362451754    0.0500
     30 H30        -9.0764    1.6403   51.3737 H       1  ZINC001362451754    0.3800
     31 H31        -6.5904    0.9342   50.2341 H       1  ZINC001362451754    0.0900
     32 H32        -6.8612    2.6973   50.0303 H       1  ZINC001362451754    0.0800
     33 H33        -4.6103    2.4680   49.2115 H       1  ZINC001362451754    0.0800
     34 H34        -4.2125    1.2085   50.4200 H       1  ZINC001362451754    0.0800
     35 H35        -2.3684    5.9456   49.1863 H       1  ZINC001362451754    0.1600
     36 H36        -0.9179    5.2351   47.2157 H       1  ZINC001362451754    0.1500
     37 H37        -0.8157    2.0340   46.1390 H       1  ZINC001362451754    0.1100
     38 H38         0.3866    3.3381   46.2874 H       1  ZINC001362451754    0.1100
     39 H39         1.1405    2.5633   49.3804 H       1  ZINC001362451754    0.1800
     40 H40         2.6138   -1.0298   47.5788 H       1  ZINC001362451754    0.1900
@<TRIPOS>BOND
     1     1     2    1
     2     1    25    1
     3     1    26    1
     4     1    27    1
     5     2     3    1
     6     2    10    1
     7     2     4    1
     8     4     5    1
     9     4     6    1
    10     4     8    1
    11     6     7    1
    12     6    28    1
    13     6    29    1
    14     7    30    1
    15     8     9    1
    16     8    31    1
    17     8    32    1
    18     9    10    1
    19     9    33    1
    20     9    34    1
    21    10    11   am
    22    11    12    2
    23    11    13    1
    24    13    24    1
    25    13    14    2
    26    14    15    1
    27    14    35    1
    28    15    16    2
    29    15    36    1
    30    16    17    1
    31    16    24    1
    32    17    18    1
    33    17    37    1
    34    17    38    1
    35    18    23    1
    36    18    19    1
    37    19    20    2
    38    19    39    1
    39    20    21    1
    40    20    22    1
    41    22    23    2
    42    22    40    1
@<TRIPOS>SUBSTRUCTURE
     1 ZINC001362451754        1 TEMP              0 ****  ****    0 ROOT


##########                                Name:    ZINC000675319328
##########                DOCK_Rotatable_Bonds:                   7
##########                         Heavy_Atoms:                  26
##########                    Molecular_Weight:             363.475
##########                DOCK_Rotatable_Bonds:                   7
##########                       Formal_Charge:          -0.0200007
##########                     HBond_Acceptors:                   6
##########                        HBond_Donors:                   1
##########                         Heavy_Atoms:                  26
##########                          Grid_Score:          -25.951466
##########                     Grid_vdw_energy:          -25.756672
##########                      Grid_es_energy:           -0.194794
##########           Internal_energy_repulsive:           15.257749

@<TRIPOS>MOLECULE
ZINC000675319328
 56 58 1 0 0
SMALL
USER_CHARGES


@<TRIPOS>ATOM
      1 C1         -5.4794    1.6872   50.9902 C.3     1  ZINC000675319328   -0.1600
      2 C2         -4.8067    2.9205   51.5960 C.3     1  ZINC000675319328    0.1600
      3 H3         -4.3747    2.6609   52.5625 H       1  ZINC000675319328    0.0900
      4 C4         -5.8454    4.0282   51.7827 C.3     1  ZINC000675319328   -0.1200
      5 C5         -5.2430    5.1560   52.6229 C.3     1  ZINC000675319328   -0.1200
      6 H6         -4.4022    5.6169   52.1045 H       1  ZINC000675319328    0.0800
      7 C7         -6.3208    6.2159   52.9793 C.3     1  ZINC000675319328   -0.1500
      8 C8         -5.7567    6.7726   54.3107 C.3     1  ZINC000675319328    0.0500
      9 O9         -5.1760    5.6392   54.9752 O.3     1  ZINC000675319328   -0.3900
     10 C10        -4.8144    4.6373   54.0123 C.3     1  ZINC000675319328    0.0500
     11 N11        -3.7483    3.3899   50.6983 N.am    1  ZINC000675319328   -0.7400
     12 C12        -2.4967    3.5663   51.1664 C.2     1  ZINC000675319328    0.7000
     13 O13        -2.2462    3.3358   52.3336 O.2     1  ZINC000675319328   -0.5900
     14 N14        -1.5231    3.9981   50.3407 N.am    1  ZINC000675319328   -0.6200
     15 C15        -0.1623    4.1817   50.8825 C.3     1  ZINC000675319328    0.1300
     16 C16         0.9041    3.6668   49.9013 C.3     1  ZINC000675319328   -0.1300
     17 C17         0.4291    2.3793   49.2645 C.3     1  ZINC000675319328    0.0700
     18 N18        -0.2608    2.6904   48.0137 N.3     1  ZINC000675319328   -0.5500
     19 C19        -0.0137    1.6525   47.0039 C.3     1  ZINC000675319328    0.1000
     20 C20         0.9132    2.1921   45.9453 C.ar    1  ZINC000675319328   -0.0900
     21 C21         2.2024    1.7036   45.8420 C.ar    1  ZINC000675319328   -0.0900
     22 C22         3.0533    2.1977   44.8716 C.ar    1  ZINC000675319328   -0.1500
     23 C23         2.6141    3.1818   44.0023 C.ar    1  ZINC000675319328    0.1000
     24 F24         3.4450    3.6651   43.0529 F       1  ZINC000675319328   -0.1400
     25 C25         1.3226    3.6698   44.1063 C.ar    1  ZINC000675319328   -0.1500
     26 C26         0.4719    3.1709   45.0745 C.ar    1  ZINC000675319328   -0.0700
     27 C27        -1.6414    2.9816   48.1140 C.3     1  ZINC000675319328    0.0500
     28 C28        -1.8505    4.2587   48.9536 C.3     1  ZINC000675319328    0.1100
     29 H29        -4.7394    0.8980   50.8572 H       1  ZINC000675319328    0.0600
     30 H30        -6.2669    1.3379   51.6580 H       1  ZINC000675319328    0.0700
     31 H31        -5.9114    1.9468   50.0236 H       1  ZINC000675319328    0.0500
     32 H32        -6.1397    4.4183   50.8083 H       1  ZINC000675319328    0.0700
     33 H33        -6.7204    3.6236   52.2914 H       1  ZINC000675319328    0.0900
     34 H34        -6.3727    6.9946   52.2185 H       1  ZINC000675319328    0.0800
     35 H35        -7.2949    5.7505   53.1296 H       1  ZINC000675319328    0.0800
     36 H36        -4.9947    7.5265   54.1129 H       1  ZINC000675319328    0.0600
     37 H37        -6.5598    7.1948   54.9148 H       1  ZINC000675319328    0.0900
     38 H38        -5.3364    3.7063   54.2338 H       1  ZINC000675319328    0.0700
     39 H39        -3.7371    4.4733   54.0360 H       1  ZINC000675319328    0.0700
     40 H40        -3.9482    3.5737   49.7672 H       1  ZINC000675319328    0.3900
     41 H41         0.0072    5.2421   51.0695 H       1  ZINC000675319328    0.0600
     42 H42        -0.0758    3.6363   51.8223 H       1  ZINC000675319328    0.0900
     43 H43         1.0747    4.4136   49.1259 H       1  ZINC000675319328    0.0800
     44 H44         1.8342    3.4839   50.4393 H       1  ZINC000675319328    0.0800
     45 H45         1.2855    1.7372   49.0584 H       1  ZINC000675319328    0.0700
     46 H46        -0.2559    1.8690   49.9415 H       1  ZINC000675319328    0.0400
     47 H47         0.4435    0.7847   47.4792 H       1  ZINC000675319328    0.0900
     48 H48        -0.9581    1.3599   46.5450 H       1  ZINC000675319328    0.0400
     49 H49         2.5447    0.9360   46.5201 H       1  ZINC000675319328    0.1300
     50 H50         4.0606    1.8165   44.7915 H       1  ZINC000675319328    0.1400
     51 H51         0.9790    4.4377   43.4291 H       1  ZINC000675319328    0.1400
     52 H52        -0.5356    3.5512   45.1557 H       1  ZINC000675319328    0.1300
     53 H53        -2.0528    3.1320   47.1159 H       1  ZINC000675319328    0.0900
     54 H54        -2.1533    2.1470   48.5928 H       1  ZINC000675319328    0.0300
     55 H55        -2.8916    4.5734   48.8819 H       1  ZINC000675319328    0.0700
     56 H56        -1.2058    5.0516   48.5746 H       1  ZINC000675319328    0.0900
@<TRIPOS>BOND
     1     1     2    1
     2     1    29    1
     3     1    30    1
     4     1    31    1
     5     2     3    1
     6     2     4    1
     7     2    11    1
     8     4     5    1
     9     4    32    1
    10     4    33    1
    11     5     6    1
    12     5    10    1
    13     5     7    1
    14     7     8    1
    15     7    34    1
    16     7    35    1
    17     8     9    1
    18     8    36    1
    19     8    37    1
    20     9    10    1
    21    10    38    1
    22    10    39    1
    23    11    12   am
    24    11    40    1
    25    12    13    2
    26    12    14   am
    27    14    28    1
    28    14    15    1
    29    15    16    1
    30    15    41    1
    31    15    42    1
    32    16    17    1
    33    16    43    1
    34    16    44    1
    35    17    18    1
    36    17    45    1
    37    17    46    1
    38    18    19    1
    39    18    27    1
    40    19    20    1
    41    19    47    1
    42    19    48    1
    43    20    26   ar
    44    20    21   ar
    45    21    22   ar
    46    21    49    1
    47    22    23   ar
    48    22    50    1
    49    23    24    1
    50    23    25   ar
    51    25    26   ar
    52    25    51    1
    53    26    52    1
    54    27    28    1
    55    27    53    1
    56    27    54    1
    57    28    55    1
    58    28    56    1
@<TRIPOS>SUBSTRUCTURE
     1 ZINC000675319328        1 TEMP              0 ****  ****    0 ROOT


##########                                Name:    ZINC000426607143
##########                DOCK_Rotatable_Bonds:                   3
##########                         Heavy_Atoms:                  25
##########                    Molecular_Weight:             419.302
##########                DOCK_Rotatable_Bonds:                   3
##########                       Formal_Charge:         1.49012e-07
##########                     HBond_Acceptors:                   7
##########                        HBond_Donors:                   0
##########                         Heavy_Atoms:                  25
##########                          Grid_Score:          -25.926386
##########                     Grid_vdw_energy:          -25.113356
##########                      Grid_es_energy:           -0.813031
##########           Internal_energy_repulsive:           29.949844

@<TRIPOS>MOLECULE
ZINC000426607143
 40 43 1 0 0
SMALL
USER_CHARGES


@<TRIPOS>ATOM
      1 C1         -6.3473    1.6924   49.8426 C.3     1  ZINC000426607143   -0.0900
      2 C2         -6.2117    2.3736   51.1800 C.2     1  ZINC000426607143    0.1600
      3 N3         -7.2160    2.4757   51.9958 N.2     1  ZINC000426607143   -0.4600
      4 S4         -6.6707    3.2957   53.3758 S.3     1  ZINC000426607143    0.2900
      5 C5         -5.0518    3.5011   52.8313 C.2     1  ZINC000426607143   -0.1300
      6 C6         -3.9219    4.1781   53.5636 C.3     1  ZINC000426607143   -0.0800
      7 C7         -5.0050    2.9169   51.6004 C.2     1  ZINC000426607143   -0.1200
      8 C8         -3.7726    2.8738   50.7765 C.2     1  ZINC000426607143    0.2500
      9 N9         -3.6434    2.3146   49.6008 N.2     1  ZINC000426607143   -0.3700
     10 O10        -2.5090    2.4550   49.1951 O.3     1  ZINC000426607143    0.0900
     11 C11        -1.7831    3.1327   50.0898 C.2     1  ZINC000426607143    0.2000
     12 C12        -0.3303    3.5116   49.9612 C.3     1  ZINC000426607143   -0.0300
     13 H13        -0.2249    4.4199   49.3681 H       1  ZINC000426607143    0.1600
     14 C14         0.3054    3.7006   51.3581 C.3     1  ZINC000426607143   -0.1200
     15 C15         1.7273    3.1391   51.1358 C.3     1  ZINC000426607143    0.1000
     16 N16         1.6035    2.1883   50.0246 N.am    1  ZINC000426607143   -0.5800
     17 C17         2.5541    1.2094   49.7133 C.ar    1  ZINC000426607143    0.1700
     18 C18         2.3633   -0.1020   50.1267 C.ar    1  ZINC000426607143   -0.1000
     19 C19         3.3035   -1.0661   49.8178 C.ar    1  ZINC000426607143   -0.1000
     20 C20         4.4340   -0.7262   49.0982 C.ar    1  ZINC000426607143   -0.1000
     21 C21         4.6277    0.5791   48.6846 C.ar    1  ZINC000426607143   -0.0900
     22 C22         3.6884    1.5469   48.9847 C.ar    1  ZINC000426607143   -0.0800
     23 Br23        3.9538    3.3317   48.4190 Br      1  ZINC000426607143   -0.0400
     24 C24         0.4592    2.3797   49.3412 C.2     1  ZINC000426607143    0.5300
     25 O25         0.1119    1.7360   48.3736 O.2     1  ZINC000426607143   -0.4900
     26 N26        -2.5731    3.4102   51.0970 N.2     1  ZINC000426607143   -0.4600
     27 H27        -6.1263    0.6306   49.9516 H       1  ZINC000426607143    0.0900
     28 H28        -7.3656    1.8155   49.4737 H       1  ZINC000426607143    0.0800
     29 H29        -5.6482    2.1383   49.1352 H       1  ZINC000426607143    0.1100
     30 H30        -4.2786    4.5387   54.5284 H       1  ZINC000426607143    0.0800
     31 H31        -3.1114    3.4661   53.7188 H       1  ZINC000426607143    0.0900
     32 H32        -3.5587    5.0192   52.9730 H       1  ZINC000426607143    0.0900
     33 H33         0.3407    4.7552   51.6311 H       1  ZINC000426607143    0.1100
     34 H34        -0.2291    3.1219   52.1114 H       1  ZINC000426607143    0.1000
     35 H35         2.4130    3.9435   50.8693 H       1  ZINC000426607143    0.0900
     36 H36         2.0753    2.6274   52.0331 H       1  ZINC000426607143    0.0900
     37 H37         1.4809   -0.3683   50.6894 H       1  ZINC000426607143    0.1400
     38 H38         3.1553   -2.0863   50.1393 H       1  ZINC000426607143    0.1400
     39 H39         5.1676   -1.4818   48.8589 H       1  ZINC000426607143    0.1400
     40 H40         5.5120    0.8414   48.1226 H       1  ZINC000426607143    0.1400
@<TRIPOS>BOND
     1     1     2    1
     2     1    27    1
     3     1    28    1
     4     1    29    1
     5     2     7    1
     6     2     3    2
     7     3     4    1
     8     4     5    1
     9     5     6    1
    10     5     7    2
    11     6    30    1
    12     6    31    1
    13     6    32    1
    14     7     8    1
    15     8    26    1
    16     8     9    2
    17     9    10    1
    18    10    11    1
    19    11    12    1
    20    11    26    2
    21    12    13    1
    22    12    24    1
    23    12    14    1
    24    14    15    1
    25    14    33    1
    26    14    34    1
    27    15    16    1
    28    15    35    1
    29    15    36    1
    30    16    17    1
    31    16    24   am
    32    17    22   ar
    33    17    18   ar
    34    18    19   ar
    35    18    37    1
    36    19    20   ar
    37    19    38    1
    38    20    21   ar
    39    20    39    1
    40    21    22   ar
    41    21    40    1
    42    22    23    1
    43    24    25    2
@<TRIPOS>SUBSTRUCTURE
     1 ZINC000426607143        1 TEMP              0 ****  ****    0 ROOT


##########                                Name:    ZINC001211202056
##########                DOCK_Rotatable_Bonds:                   4
##########                         Heavy_Atoms:                  23
##########                    Molecular_Weight:             386.181
##########                DOCK_Rotatable_Bonds:                   4
##########                       Formal_Charge:           0.0199999
##########                     HBond_Acceptors:                  11
##########                        HBond_Donors:                   3
##########                         Heavy_Atoms:                  23
##########                          Grid_Score:          -25.923811
##########                     Grid_vdw_energy:          -24.680725
##########                      Grid_es_energy:           -1.243086
##########           Internal_energy_repulsive:            6.267501

@<TRIPOS>MOLECULE
ZINC001211202056
 31 32 1 0 0
SMALL
USER_CHARGES


@<TRIPOS>ATOM
      1 N1          2.3887   -1.1965   49.4008 N.pl3   1  ZINC001211202056   -0.8500
      2 C2          2.1013    0.1142   49.0102 C.ar    1  ZINC001211202056    0.2900
      3 C3          1.2638    0.9038   49.7865 C.ar    1  ZINC001211202056   -0.2000
      4 C4          0.9815    2.1991   49.3976 C.ar    1  ZINC001211202056    0.0400
      5 C5          1.5316    2.7098   48.2367 C.ar    1  ZINC001211202056   -0.7300
      6 S6          1.1685    4.3624   47.7450 S.o2    1  ZINC001211202056    2.6900
      7 O7          1.1422    5.1385   48.9351 O.2     1  ZINC001211202056   -0.9400
      8 O8          2.0235    4.6515   46.6475 O.2     1  ZINC001211202056   -0.9300
      9 N9         -0.3763    4.3683   47.1487 N.am    1  ZINC001211202056   -1.0500
     10 C10        -1.4424    3.9814   47.9657 C.ar    1  ZINC001211202056    0.1600
     11 C11        -1.9076    4.8279   48.9679 C.ar    1  ZINC001211202056   -0.1200
     12 C12        -2.9674    4.4002   49.7520 C.ar    1  ZINC001211202056   -0.0800
     13 C13        -3.5239    3.1577   49.5161 C.ar    1  ZINC001211202056    0.0400
     14 C14        -4.6765    2.6868   50.3652 C.3     1  ZINC001211202056    0.5300
     15 F15        -5.4007    3.7926   50.8231 F       1  ZINC001211202056   -0.1700
     16 F16        -5.5129    1.8651   49.6018 F       1  ZINC001211202056   -0.1600
     17 F17        -4.1858    1.9652   51.4587 F       1  ZINC001211202056   -0.1700
     18 N18        -3.0609    2.3779   48.5580 N.ar    1  ZINC001211202056   -0.4100
     19 C19        -2.0579    2.7473   47.7859 C.ar    1  ZINC001211202056    0.1600
     20 Cl20       -1.4923    1.6779   46.5407 Cl      1  ZINC001211202056    0.0000
     21 C21         2.3665    1.9266   47.4603 C.ar    1  ZINC001211202056    0.0400
     22 C22         2.6580    0.6324   47.8464 C.ar    1  ZINC001211202056   -0.1400
     23 Cl23        3.7060   -0.3502   46.8717 Cl      1  ZINC001211202056   -0.0500
     24 H24         2.9772   -1.7458   48.8596 H       1  ZINC001211202056    0.4100
     25 H25         2.0029   -1.5555   50.2151 H       1  ZINC001211202056    0.4100
     26 H26         0.8330    0.5057   50.6933 H       1  ZINC001211202056    0.1400
     27 H27         0.3300    2.8136   50.0013 H       1  ZINC001211202056    0.1500
     28 H28        -0.5414    4.6402   46.2323 H       1  ZINC001211202056    0.4400
     29 H29        -1.4536    5.7943   49.1307 H       1  ZINC001211202056    0.2000
     30 H30        -3.3539    5.0310   50.5388 H       1  ZINC001211202056    0.1700
     31 H31         2.7945    2.3287   46.5539 H       1  ZINC001211202056    0.1500
@<TRIPOS>BOND
     1     1     2    1
     2     1    24    1
     3     1    25    1
     4     2    22   ar
     5     2     3   ar
     6     3     4   ar
     7     3    26    1
     8     4     5   ar
     9     4    27    1
    10     5     6    1
    11     5    21   ar
    12     6     7    2
    13     6     8    2
    14     6     9   am
    15     9    10    1
    16     9    28    1
    17    10    19   ar
    18    10    11   ar
    19    11    12   ar
    20    11    29    1
    21    12    13   ar
    22    12    30    1
    23    13    14    1
    24    13    18   ar
    25    14    15    1
    26    14    16    1
    27    14    17    1
    28    18    19   ar
    29    19    20    1
    30    21    22   ar
    31    21    31    1
    32    22    23    1
@<TRIPOS>SUBSTRUCTURE
     1 ZINC001211202056        1 TEMP              0 ****  ****    0 ROOT


##########                                Name:    ZINC000130059363
##########                DOCK_Rotatable_Bonds:                   4
##########                         Heavy_Atoms:                  29
##########                    Molecular_Weight:             389.497
##########                DOCK_Rotatable_Bonds:                   4
##########                       Formal_Charge:          -0.0100003
##########                     HBond_Acceptors:                   5
##########                        HBond_Donors:                   0
##########                         Heavy_Atoms:                  29
##########                          Grid_Score:          -25.912960
##########                     Grid_vdw_energy:          -25.955635
##########                      Grid_es_energy:            0.042675
##########           Internal_energy_repulsive:           28.749615

@<TRIPOS>MOLECULE
ZINC000130059363
 56 60 1 0 0
SMALL
USER_CHARGES


@<TRIPOS>ATOM
      1 C1        -11.3301    2.0212   52.6700 C.3     1  ZINC000130059363   -0.1200
      2 C2         -9.9705    1.4080   52.4543 C.ar    1  ZINC000130059363    0.1900
      3 N3         -8.9230    2.1871   52.2973 N.ar    1  ZINC000130059363   -0.4800
      4 C4         -7.7059    1.6919   52.1050 C.ar    1  ZINC000130059363    0.2000
      5 C5         -6.5591    2.6153   51.9341 C.ar    1  ZINC000130059363   -0.0600
      6 C6         -5.3006    2.1144   51.6031 C.ar    1  ZINC000130059363   -0.1000
      7 C7         -4.2368    2.9790   51.4449 C.ar    1  ZINC000130059363   -0.1200
      8 C8         -4.4169    4.3401   51.6145 C.ar    1  ZINC000130059363   -0.1000
      9 C9         -5.6630    4.8427   51.9435 C.ar    1  ZINC000130059363   -0.1300
     10 C10        -6.7357    3.9885   52.0982 C.ar    1  ZINC000130059363   -0.0700
     11 C11        -7.4927    0.3142   52.0620 C.ar    1  ZINC000130059363   -0.1800
     12 C12        -8.5662   -0.5393   52.2225 C.ar    1  ZINC000130059363   -0.0400
     13 C13        -9.8355    0.0181   52.4288 C.ar    1  ZINC000130059363   -0.1900
     14 C14       -11.0156   -0.8522   52.6064 C.2     1  ZINC000130059363    0.5700
     15 O15       -11.6703   -1.1932   51.6404 O.2     1  ZINC000130059363   -0.5200
     16 N16       -11.3666   -1.2684   53.8393 N.am    1  ZINC000130059363   -0.6000
     17 C17       -10.5904   -0.8612   55.0193 C.3     1  ZINC000130059363    0.1000
     18 C18       -11.5444   -0.2100   56.0250 C.3     1  ZINC000130059363   -0.1500
     19 C19       -12.7005   -1.1562   56.3289 C.3     1  ZINC000130059363    0.1500
     20 H20       -13.3799   -0.6521   57.0163 H       1  ZINC000130059363    0.0700
     21 C21       -13.4758   -1.4951   55.0573 C.3     1  ZINC000130059363   -0.1100
     22 H22       -13.9326   -0.5947   54.6465 H       1  ZINC000130059363    0.1000
     23 C23       -14.5626   -2.5189   55.4222 C.3     1  ZINC000130059363   -0.1200
     24 C24       -13.8740   -3.8326   55.8008 C.3     1  ZINC000130059363   -0.1400
     25 C25       -12.7640   -3.5733   56.7781 C.2     1  ZINC000130059363    0.5200
     26 O26       -12.3282   -4.5099   57.4135 O.2     1  ZINC000130059363   -0.5400
     27 N27       -12.2287   -2.3735   56.9699 N.am    1  ZINC000130059363   -0.5700
     28 C28       -11.1095   -2.2566   57.9079 C.3     1  ZINC000130059363    0.0700
     29 C29       -11.2099   -1.1877   58.9979 C.3     1  ZINC000130059363   -0.1800
     30 C30       -11.3595   -2.6665   59.3606 C.3     1  ZINC000130059363   -0.1600
     31 C31       -12.5363   -2.1337   54.0347 C.3     1  ZINC000130059363    0.1100
     32 H32       -11.5404    2.0717   53.7384 H       1  ZINC000130059363    0.0800
     33 H33       -11.3464    3.0263   52.2486 H       1  ZINC000130059363    0.0800
     34 H34       -12.0868    1.4091   52.1793 H       1  ZINC000130059363    0.1000
     35 H35        -5.1586    1.0519   51.4711 H       1  ZINC000130059363    0.1300
     36 H36        -3.2616    2.5923   51.1885 H       1  ZINC000130059363    0.1300
     37 H37        -3.5813    5.0129   51.4901 H       1  ZINC000130059363    0.1300
     38 H38        -5.7976    5.9062   52.0750 H       1  ZINC000130059363    0.1300
     39 H39        -7.7082    4.3820   52.3550 H       1  ZINC000130059363    0.1400
     40 H40        -6.4997   -0.0803   51.9048 H       1  ZINC000130059363    0.1400
     41 H41        -8.4305   -1.6104   52.1935 H       1  ZINC000130059363    0.1400
     42 H42       -10.1226   -1.7362   55.4707 H       1  ZINC000130059363    0.0700
     43 H43        -9.8231   -0.1453   54.7247 H       1  ZINC000130059363    0.0900
     44 H44       -11.0047    0.0101   56.9461 H       1  ZINC000130059363    0.0900
     45 H45       -11.9355    0.7168   55.6055 H       1  ZINC000130059363    0.0800
     46 H46       -15.1446   -2.1519   56.2676 H       1  ZINC000130059363    0.0800
     47 H47       -15.2178   -2.6805   54.5664 H       1  ZINC000130059363    0.0900
     48 H48       -14.6031   -4.5052   56.2526 H       1  ZINC000130059363    0.1000
     49 H49       -13.4645   -4.2971   54.9040 H       1  ZINC000130059363    0.1000
     50 H50       -10.1232   -2.4591   57.4905 H       1  ZINC000130059363    0.1100
     51 H51       -10.2895   -0.6866   59.2977 H       1  ZINC000130059363    0.1100
     52 H52       -12.1087   -0.5713   59.0171 H       1  ZINC000130059363    0.1000
     53 H53       -12.3567   -3.0231   59.6184 H       1  ZINC000130059363    0.1000
     54 H54       -10.5375   -3.1384   59.8990 H       1  ZINC000130059363    0.1000
     55 H55       -13.0603   -2.2593   53.0872 H       1  ZINC000130059363    0.1000
     56 H56       -12.2059   -3.1057   54.4009 H       1  ZINC000130059363    0.0700
@<TRIPOS>BOND
     1     1     2    1
     2     1    32    1
     3     1    33    1
     4     1    34    1
     5     2    13   ar
     6     2     3   ar
     7     3     4   ar
     8     4     5    1
     9     4    11   ar
    10     5    10   ar
    11     5     6   ar
    12     6     7   ar
    13     6    35    1
    14     7     8   ar
    15     7    36    1
    16     8     9   ar
    17     8    37    1
    18     9    10   ar
    19     9    38    1
    20    10    39    1
    21    11    12   ar
    22    11    40    1
    23    12    13   ar
    24    12    41    1
    25    13    14    1
    26    14    15    2
    27    14    16   am
    28    16    31    1
    29    16    17    1
    30    17    18    1
    31    17    42    1
    32    17    43    1
    33    18    19    1
    34    18    44    1
    35    18    45    1
    36    19    20    1
    37    19    27    1
    38    19    21    1
    39    21    22    1
    40    21    23    1
    41    21    31    1
    42    23    24    1
    43    23    46    1
    44    23    47    1
    45    24    25    1
    46    24    48    1
    47    24    49    1
    48    25    26    2
    49    25    27   am
    50    27    28    1
    51    28    30    1
    52    28    29    1
    53    28    50    1
    54    29    30    1
    55    29    51    1
    56    29    52    1
    57    30    53    1
    58    30    54    1
    59    31    55    1
    60    31    56    1
@<TRIPOS>SUBSTRUCTURE
     1 ZINC000130059363        1 TEMP              0 ****  ****    0 ROOT


##########                                Name:    ZINC000962855438
##########                DOCK_Rotatable_Bonds:                   7
##########                         Heavy_Atoms:                  27
##########                    Molecular_Weight:             370.448
##########                DOCK_Rotatable_Bonds:                   7
##########                       Formal_Charge:           0.0300005
##########                     HBond_Acceptors:                   6
##########                        HBond_Donors:                   2
##########                         Heavy_Atoms:                  27
##########                          Grid_Score:          -25.885828
##########                     Grid_vdw_energy:          -24.387058
##########                      Grid_es_energy:           -1.498769
##########           Internal_energy_repulsive:            9.254791

@<TRIPOS>MOLECULE
ZINC000962855438
 53 56 1 0 0
SMALL
USER_CHARGES


@<TRIPOS>ATOM
      1 C1         -8.9612    3.5065   55.6111 C.3     1  ZINC000962855438   -0.1100
      2 C2         -7.7695    3.1925   56.4785 C.2     1  ZINC000962855438   -0.1700
      3 C3         -7.8868    2.2008   57.5585 C.2     1  ZINC000962855438    0.5600
      4 O4         -6.9201    1.9336   58.2464 O.2     1  ZINC000962855438   -0.5400
      5 N5         -9.0656    1.5880   57.7857 N.am    1  ZINC000962855438   -0.7100
      6 C6         -9.1820    0.5990   58.8602 C.3     1  ZINC000962855438    0.1500
      7 H7         -8.2728    0.0031   58.9399 H       1  ZINC000962855438    0.1200
      8 C8        -10.4220   -0.3053   58.6504 C.3     1  ZINC000962855438    0.1000
      9 N9        -10.7710   -0.7861   59.9997 N.am    1  ZINC000962855438   -0.6100
     10 C10       -11.4535   -1.9141   60.2794 C.2     1  ZINC000962855438    0.5800
     11 O11       -11.6850   -2.2139   61.4348 O.2     1  ZINC000962855438   -0.5200
     12 C12       -11.9196   -2.7852   59.1836 C.ar    1  ZINC000962855438   -0.1500
     13 C13       -11.0294   -3.6584   58.5586 C.ar    1  ZINC000962855438   -0.0600
     14 C14       -11.4617   -4.4728   57.5340 C.ar    1  ZINC000962855438   -0.1500
     15 C15       -12.7834   -4.4223   57.1201 C.ar    1  ZINC000962855438   -0.0500
     16 C16       -13.6700   -3.5619   57.7283 C.ar    1  ZINC000962855438   -0.1800
     17 C17       -13.2639   -2.7406   58.7714 C.ar    1  ZINC000962855438    0.1600
     18 O18       -14.2955   -1.9911   59.2402 O.3     1  ZINC000962855438   -0.2800
     19 C19       -15.3375   -1.9467   58.2504 C.3     1  ZINC000962855438    0.0700
     20 H20       -15.2011   -1.0951   57.5839 H       1  ZINC000962855438    0.0900
     21 C21       -16.7148   -1.8973   58.9149 C.3     1  ZINC000962855438   -0.1500
     22 C22       -15.1416   -3.2817   57.4902 C.3     1  ZINC000962855438   -0.1100
     23 C23       -10.2505    0.1683   60.9895 C.3     1  ZINC000962855438    0.0700
     24 C24        -9.5190    1.2829   60.2115 C.3     1  ZINC000962855438    0.0900
     25 H25        -8.6087    1.5823   60.7310 H       1  ZINC000962855438    0.0900
     26 O26       -10.3780    2.4074   60.0118 O.3     1  ZINC000962855438   -0.5600
     27 C27        -6.6118    3.8121   56.2674 C.2     1  ZINC000962855438   -0.0600
     28 C28        -5.2279    3.7855   56.8812 C.3     1  ZINC000962855438   -0.1000
     29 C29        -5.0541    5.2279   56.3804 C.3     1  ZINC000962855438   -0.1400
     30 C30        -6.0875    4.8539   55.3021 C.3     1  ZINC000962855438   -0.1100
     31 H31        -9.5274    4.3257   56.0544 H       1  ZINC000962855438    0.0700
     32 H32        -8.6207    3.7963   54.6170 H       1  ZINC000962855438    0.0700
     33 H33        -9.5973    2.6247   55.5346 H       1  ZINC000962855438    0.0700
     34 H34        -9.8369    1.8020   57.2378 H       1  ZINC000962855438    0.4100
     35 H35       -11.2451    0.2713   58.2285 H       1  ZINC000962855438    0.0800
     36 H36       -10.1739   -1.1449   58.0010 H       1  ZINC000962855438    0.0900
     37 H37        -9.9985   -3.6963   58.8781 H       1  ZINC000962855438    0.1400
     38 H38       -10.7706   -5.1496   57.0536 H       1  ZINC000962855438    0.1400
     39 H39       -13.1196   -5.0606   56.3164 H       1  ZINC000962855438    0.1300
     40 H40       -16.7944   -0.9938   59.5193 H       1  ZINC000962855438    0.0700
     41 H41       -17.4885   -1.8904   58.1472 H       1  ZINC000962855438    0.0800
     42 H42       -16.8426   -2.7728   59.5516 H       1  ZINC000962855438    0.0700
     43 H43       -15.3435   -3.1576   56.4264 H       1  ZINC000962855438    0.1000
     44 H44       -15.7666   -4.0672   57.9150 H       1  ZINC000962855438    0.1000
     45 H45       -11.0742    0.5946   61.5621 H       1  ZINC000962855438    0.0800
     46 H46        -9.5527   -0.3352   61.6586 H       1  ZINC000962855438    0.0800
     47 H47       -10.0161    3.0781   59.4167 H       1  ZINC000962855438    0.3900
     48 H48        -5.2348    3.6994   57.9678 H       1  ZINC000962855438    0.0900
     49 H49        -4.5534    3.0745   56.4043 H       1  ZINC000962855438    0.1000
     50 H50        -5.4011    5.9836   57.0852 H       1  ZINC000962855438    0.0900
     51 H51        -4.0619    5.4390   55.9816 H       1  ZINC000962855438    0.0800
     52 H52        -5.6431    4.4334   54.3999 H       1  ZINC000962855438    0.1000
     53 H53        -6.8036    5.6481   55.0908 H       1  ZINC000962855438    0.0800
@<TRIPOS>BOND
     1     1     2    1
     2     1    31    1
     3     1    32    1
     4     1    33    1
     5     2     3    1
     6     2    27    2
     7     3     4    2
     8     3     5   am
     9     5     6    1
    10     5    34    1
    11     6     7    1
    12     6    24    1
    13     6     8    1
    14     8     9    1
    15     8    35    1
    16     8    36    1
    17     9    10   am
    18     9    23    1
    19    10    11    2
    20    10    12    1
    21    12    17   ar
    22    12    13   ar
    23    13    14   ar
    24    13    37    1
    25    14    15   ar
    26    14    38    1
    27    15    16   ar
    28    15    39    1
    29    16    22    1
    30    16    17   ar
    31    17    18    1
    32    18    19    1
    33    19    20    1
    34    19    21    1
    35    19    22    1
    36    21    40    1
    37    21    41    1
    38    21    42    1
    39    22    43    1
    40    22    44    1
    41    23    24    1
    42    23    45    1
    43    23    46    1
    44    24    25    1
    45    24    26    1
    46    26    47    1
    47    27    30    1
    48    27    28    1
    49    28    29    1
    50    28    48    1
    51    28    49    1
    52    29    30    1
    53    29    50    1
    54    29    51    1
    55    30    52    1
    56    30    53    1
@<TRIPOS>SUBSTRUCTURE
     1 ZINC000962855438        1 TEMP              0 ****  ****    0 ROOT


##########                                Name:    ZINC001074839487
##########                DOCK_Rotatable_Bonds:                   7
##########                         Heavy_Atoms:                  25
##########                    Molecular_Weight:             344.454
##########                DOCK_Rotatable_Bonds:                   7
##########                       Formal_Charge:          -0.0500005
##########                     HBond_Acceptors:                   5
##########                        HBond_Donors:                   1
##########                         Heavy_Atoms:                  25
##########                          Grid_Score:          -25.884027
##########                     Grid_vdw_energy:          -25.180370
##########                      Grid_es_energy:           -0.703657
##########           Internal_energy_repulsive:           89.149078

@<TRIPOS>MOLECULE
ZINC001074839487
 53 55 1 0 0
SMALL
USER_CHARGES


@<TRIPOS>ATOM
      1 C1         -2.5246    3.1572   57.7239 C.3     1  ZINC001074839487   -0.1500
      2 C2         -1.3279    3.2027   56.7717 C.3     1  ZINC001074839487   -0.1300
      3 C3         -1.7314    3.9148   55.4790 C.3     1  ZINC001074839487   -0.1100
      4 C4         -0.5191    4.0129   54.5509 C.3     1  ZINC001074839487   -0.1400
      5 C5         -0.8945    4.7880   53.3143 C.2     1  ZINC001074839487    0.5100
      6 O6         -1.6534    5.7305   53.3964 O.2     1  ZINC001074839487   -0.5400
      7 N7         -0.3870    4.4339   52.1169 N.am    1  ZINC001074839487   -0.7300
      8 C8         -0.7534    5.1862   50.9146 C.3     1  ZINC001074839487    0.1400
      9 H9         -0.8650    6.2410   51.1661 H       1  ZINC001074839487    0.0900
     10 C10         0.3436    5.0270   49.8594 C.3     1  ZINC001074839487   -0.1500
     11 C11         0.5213    3.5407   49.5336 C.3     1  ZINC001074839487    0.0700
     12 N12        -0.7802    2.9841   49.1397 N.am    1  ZINC001074839487   -0.6000
     13 C13        -0.9201    2.3243   47.9728 C.2     1  ZINC001074839487    0.5600
     14 O14        -2.0020    1.8683   47.6583 O.2     1  ZINC001074839487   -0.5200
     15 C15         0.2425    2.1551   47.0753 C.ar    1  ZINC001074839487   -0.1300
     16 C16         0.3685    2.9491   45.9345 C.ar    1  ZINC001074839487   -0.1000
     17 C17         1.4559    2.7869   45.0999 C.ar    1  ZINC001074839487   -0.1000
     18 C18         2.4184    1.8406   45.3921 C.ar    1  ZINC001074839487   -0.1100
     19 C19         3.6944    1.4320   44.6929 C.3     1  ZINC001074839487    0.0900
     20 O20         4.0407    0.1400   45.2242 O.3     1  ZINC001074839487   -0.3600
     21 C21         3.4972    0.1279   46.5569 C.3     1  ZINC001074839487    0.0900
     22 C22         2.2988    1.0477   46.5251 C.ar    1  ZINC001074839487   -0.1400
     23 C23         1.2221    1.2037   47.3685 C.ar    1  ZINC001074839487   -0.0400
     24 C24        -1.9264    3.1609   50.0417 C.3     1  ZINC001074839487    0.1500
     25 H25        -1.7552    2.6046   50.9633 H       1  ZINC001074839487    0.0700
     26 C26        -3.1984    2.6518   49.3607 C.3     1  ZINC001074839487   -0.1400
     27 C27        -2.0766    4.6514   50.3619 C.3     1  ZINC001074839487   -0.1400
     28 H28        -2.8449    4.1734   57.9537 H       1  ZINC001074839487    0.0500
     29 H29        -2.2372    2.6498   58.6447 H       1  ZINC001074839487    0.0500
     30 H30        -3.3444    2.6160   57.2515 H       1  ZINC001074839487    0.0500
     31 H31        -0.5081    3.7439   57.2440 H       1  ZINC001074839487    0.0600
     32 H32        -1.0077    2.1865   56.5418 H       1  ZINC001074839487    0.0600
     33 H33        -2.5225    3.3506   54.9850 H       1  ZINC001074839487    0.0700
     34 H34        -2.0916    4.9166   55.7133 H       1  ZINC001074839487    0.0700
     35 H35         0.2934    4.5240   55.0673 H       1  ZINC001074839487    0.0900
     36 H36        -0.1963    3.0111   54.2677 H       1  ZINC001074839487    0.0900
     37 H37         0.2208    3.6807   52.0515 H       1  ZINC001074839487    0.4000
     38 H38         0.0601    5.5662   48.9556 H       1  ZINC001074839487    0.0800
     39 H39         1.2804    5.4294   50.2450 H       1  ZINC001074839487    0.0800
     40 H40         1.2300    3.4287   48.7131 H       1  ZINC001074839487    0.1200
     41 H41         0.8920    3.0154   50.4138 H       1  ZINC001074839487    0.0700
     42 H42        -0.3835    3.6898   45.7053 H       1  ZINC001074839487    0.1500
     43 H43         1.5544    3.4011   44.2171 H       1  ZINC001074839487    0.1400
     44 H44         3.5283    1.3639   43.6178 H       1  ZINC001074839487    0.1000
     45 H45         4.4861    2.1502   44.9064 H       1  ZINC001074839487    0.0800
     46 H46         3.1885   -0.8819   46.8274 H       1  ZINC001074839487    0.1000
     47 H47         4.2363    0.4984   47.2672 H       1  ZINC001074839487    0.0800
     48 H48         1.1328    0.5893   48.2523 H       1  ZINC001074839487    0.1400
     49 H49        -3.1332    1.5716   49.2301 H       1  ZINC001074839487    0.0800
     50 H50        -4.0628    2.8916   49.9799 H       1  ZINC001074839487    0.0500
     51 H51        -3.3052    3.1297   48.3868 H       1  ZINC001074839487    0.0700
     52 H52        -2.8623    4.7865   51.1051 H       1  ZINC001074839487    0.0900
     53 H53        -2.3372    5.1942   49.4533 H       1  ZINC001074839487    0.0900
@<TRIPOS>BOND
     1     1     2    1
     2     1    28    1
     3     1    29    1
     4     1    30    1
     5     2     3    1
     6     2    31    1
     7     2    32    1
     8     3     4    1
     9     3    33    1
    10     3    34    1
    11     4     5    1
    12     4    35    1
    13     4    36    1
    14     5     6    2
    15     5     7   am
    16     7     8    1
    17     7    37    1
    18     8     9    1
    19     8    27    1
    20     8    10    1
    21    10    11    1
    22    10    38    1
    23    10    39    1
    24    11    12    1
    25    11    40    1
    26    11    41    1
    27    12    13   am
    28    12    24    1
    29    13    14    2
    30    13    15    1
    31    15    23   ar
    32    15    16   ar
    33    16    17   ar
    34    16    42    1
    35    17    18   ar
    36    17    43    1
    37    18    22   ar
    38    18    19    1
    39    19    20    1
    40    19    44    1
    41    19    45    1
    42    20    21    1
    43    21    22    1
    44    21    46    1
    45    21    47    1
    46    22    23   ar
    47    23    48    1
    48    24    25    1
    49    24    26    1
    50    24    27    1
    51    26    49    1
    52    26    50    1
    53    26    51    1
    54    27    52    1
    55    27    53    1
@<TRIPOS>SUBSTRUCTURE
     1 ZINC001074839487        1 TEMP              0 ****  ****    0 ROOT


##########                                Name:    ZINC000187810810
##########                DOCK_Rotatable_Bonds:                   7
##########                         Heavy_Atoms:                  27
##########                    Molecular_Weight:             386.414
##########                DOCK_Rotatable_Bonds:                   7
##########                       Formal_Charge:           0.0599998
##########                     HBond_Acceptors:                   8
##########                        HBond_Donors:                   1
##########                         Heavy_Atoms:                  27
##########                          Grid_Score:          -25.876678
##########                     Grid_vdw_energy:          -25.122849
##########                      Grid_es_energy:           -0.753830
##########           Internal_energy_repulsive:           50.706001

@<TRIPOS>MOLECULE
ZINC000187810810
 52 53 1 0 0
SMALL
USER_CHARGES


@<TRIPOS>ATOM
      1 C1         -7.5524    3.3062   51.4908 C.3     1  ZINC000187810810   -0.1800
      2 C2         -6.3765    3.3098   52.4697 C.3     1  ZINC000187810810    0.1400
      3 C3         -5.6808    4.6717   52.4262 C.3     1  ZINC000187810810   -0.1800
      4 C4         -6.8913    3.0450   53.8860 C.3     1  ZINC000187810810   -0.1400
      5 O5         -5.4324    2.2719   52.0959 O.3     1  ZINC000187810810   -0.3600
      6 C6         -4.8646    2.3714   50.8792 C.2     1  ZINC000187810810    0.6500
      7 O7         -5.5217    2.1471   49.8820 O.2     1  ZINC000187810810   -0.5600
      8 N8         -3.5675    2.7199   50.7673 N.am    1  ZINC000187810810   -0.6000
      9 C9         -2.7581    2.9865   51.9642 C.3     1  ZINC000187810810    0.1100
     10 C10        -2.1104    4.3676   51.8238 C.3     1  ZINC000187810810   -0.1400
     11 C11        -1.3283    4.4286   50.5097 C.3     1  ZINC000187810810    0.1800
     12 C12        -0.6515    5.7949   50.3823 C.3     1  ZINC000187810810   -0.1600
     13 N13        -0.3092    3.3762   50.4990 N.am    1  ZINC000187810810   -0.7100
     14 C14         0.5148    3.2469   49.4403 C.2     1  ZINC000187810810    0.5500
     15 O15         0.4115    4.0025   48.4938 O.2     1  ZINC000187810810   -0.5100
     16 C16         1.5445    2.1859   49.4302 C.ar    1  ZINC000187810810   -0.0900
     17 C17         2.3760    2.0057   50.5365 C.ar    1  ZINC000187810810   -0.0900
     18 C18         3.3346    1.0134   50.5207 C.ar    1  ZINC000187810810   -0.0900
     19 C19         3.4727    0.1983   49.4115 C.ar    1  ZINC000187810810   -0.0900
     20 C20         2.6517    0.3721   48.3111 C.ar    1  ZINC000187810810   -0.0800
     21 C21         1.6853    1.3563   48.3163 C.ar    1  ZINC000187810810   -0.1300
     22 C22         0.7918    1.5438   47.1173 C.3     1  ZINC000187810810    0.5200
     23 F23         0.9719    0.4771   46.2302 F       1  ZINC000187810810   -0.1800
     24 F24        -0.5435    1.5846   47.5326 F       1  ZINC000187810810   -0.1600
     25 F25         1.1176    2.7437   46.4760 F       1  ZINC000187810810   -0.1600
     26 C26        -2.2861    4.2225   49.3340 C.3     1  ZINC000187810810   -0.1500
     27 C27        -2.9343    2.8342   49.4465 C.3     1  ZINC000187810810    0.1300
     28 H28        -7.1857    3.4949   50.4818 H       1  ZINC000187810810    0.0900
     29 H29        -8.0480    2.3359   51.5218 H       1  ZINC000187810810    0.0600
     30 H30        -8.2611    4.0853   51.7714 H       1  ZINC000187810810    0.0700
     31 H31        -6.3896    5.4508   52.7069 H       1  ZINC000187810810    0.0700
     32 H32        -4.8432    4.6743   53.1237 H       1  ZINC000187810810    0.0600
     33 H33        -5.3141    4.8604   51.4172 H       1  ZINC000187810810    0.0900
     34 H34        -7.3868    2.0746   53.9170 H       1  ZINC000187810810    0.0700
     35 H35        -6.0536    3.0475   54.5834 H       1  ZINC000187810810    0.0700
     36 H36        -7.6000    3.8241   54.1666 H       1  ZINC000187810810    0.0800
     37 H37        -3.3961    2.9702   52.8479 H       1  ZINC000187810810    0.1000
     38 H38        -1.9820    2.2267   52.0572 H       1  ZINC000187810810    0.0700
     39 H39        -2.8851    5.1343   51.8220 H       1  ZINC000187810810    0.0900
     40 H40        -1.4315    4.5377   52.6593 H       1  ZINC000187810810    0.0900
     41 H41         0.0317    5.9413   51.2189 H       1  ZINC000187810810    0.0600
     42 H42        -0.0944    5.8385   49.4464 H       1  ZINC000187810810    0.0800
     43 H43        -1.4095    6.5780   50.3907 H       1  ZINC000187810810    0.0700
     44 H44        -0.2275    2.7725   51.2538 H       1  ZINC000187810810    0.4000
     45 H45         2.2695    2.6417   51.4028 H       1  ZINC000187810810    0.1400
     46 H46         3.9787    0.8729   51.3762 H       1  ZINC000187810810    0.1400
     47 H47         4.2248   -0.5766   49.4041 H       1  ZINC000187810810    0.1400
     48 H48         2.7650   -0.2673   47.4481 H       1  ZINC000187810810    0.1500
     49 H49        -3.0592    4.9906   49.3557 H       1  ZINC000187810810    0.0800
     50 H50        -1.7323    4.2893   48.3975 H       1  ZINC000187810810    0.1000
     51 H51        -2.1711    2.0643   49.3332 H       1  ZINC000187810810    0.0700
     52 H52        -3.6899    2.7198   48.6692 H       1  ZINC000187810810    0.1000
@<TRIPOS>BOND
     1     1     2    1
     2     1    28    1
     3     1    29    1
     4     1    30    1
     5     2     3    1
     6     2     4    1
     7     2     5    1
     8     3    31    1
     9     3    32    1
    10     3    33    1
    11     4    34    1
    12     4    35    1
    13     4    36    1
    14     5     6    1
    15     6     7    2
    16     6     8   am
    17     8    27    1
    18     8     9    1
    19     9    10    1
    20     9    37    1
    21     9    38    1
    22    10    11    1
    23    10    39    1
    24    10    40    1
    25    11    12    1
    26    11    13    1
    27    11    26    1
    28    12    41    1
    29    12    42    1
    30    12    43    1
    31    13    14   am
    32    13    44    1
    33    14    15    2
    34    14    16    1
    35    16    21   ar
    36    16    17   ar
    37    17    18   ar
    38    17    45    1
    39    18    19   ar
    40    18    46    1
    41    19    20   ar
    42    19    47    1
    43    20    21   ar
    44    20    48    1
    45    21    22    1
    46    22    23    1
    47    22    24    1
    48    22    25    1
    49    26    27    1
    50    26    49    1
    51    26    50    1
    52    27    51    1
    53    27    52    1
@<TRIPOS>SUBSTRUCTURE
     1 ZINC000187810810        1 TEMP              0 ****  ****    0 ROOT


##########                                Name:    ZINC000517001504
##########                DOCK_Rotatable_Bonds:                   5
##########                         Heavy_Atoms:                  29
##########                    Molecular_Weight:             403.401
##########                DOCK_Rotatable_Bonds:                   5
##########                       Formal_Charge:          -0.0200002
##########                     HBond_Acceptors:                   7
##########                        HBond_Donors:                   0
##########                         Heavy_Atoms:                  29
##########                          Grid_Score:          -25.842140
##########                     Grid_vdw_energy:          -25.676489
##########                      Grid_es_energy:           -0.165650
##########           Internal_energy_repulsive:           31.447515

@<TRIPOS>MOLECULE
ZINC000517001504
 49 52 1 0 0
SMALL
USER_CHARGES


@<TRIPOS>ATOM
      1 O1         -9.3237   -1.1457   52.2584 O.2     1  ZINC000517001504   -0.5200
      2 C2         -9.6488   -0.2910   53.0552 C.2     1  ZINC000517001504    0.5400
      3 N3         -8.8342    0.7569   53.2894 N.am    1  ZINC000517001504   -0.6100
      4 C4         -9.2098    1.8091   54.2470 C.3     1  ZINC000517001504    0.0600
      5 C5         -9.0392    3.1697   53.5619 C.3     1  ZINC000517001504    0.0500
      6 O6         -7.7243    3.2559   53.0074 O.3     1  ZINC000517001504   -0.3700
      7 C7         -7.4533    2.2881   51.9907 C.3     1  ZINC000517001504    0.1200
      8 H8         -8.1856    2.3870   51.1894 H       1  ZINC000517001504    0.0800
      9 C9         -6.0693    2.5125   51.4383 C.ar    1  ZINC000517001504   -0.0600
     10 C10        -5.0626    2.9777   52.2636 C.ar    1  ZINC000517001504   -0.0900
     11 C11        -3.7931    3.1835   51.7569 C.ar    1  ZINC000517001504   -0.0700
     12 C12        -3.5301    2.9236   50.4249 C.ar    1  ZINC000517001504   -0.1800
     13 C13        -2.1462    3.1485   49.8723 C.3     1  ZINC000517001504    0.5100
     14 F14        -1.2282    3.2136   50.9260 F       1  ZINC000517001504   -0.1800
     15 F15        -1.8060    2.0910   49.0221 F       1  ZINC000517001504   -0.1800
     16 F16        -2.1197    4.3499   49.1559 F       1  ZINC000517001504   -0.1800
     17 C17        -4.5363    2.4572   49.5998 C.ar    1  ZINC000517001504   -0.0700
     18 C18        -5.8050    2.2477   50.1075 C.ar    1  ZINC000517001504   -0.1000
     19 C19        -7.5402    0.8793   52.5996 C.3     1  ZINC000517001504    0.0900
     20 C20       -10.9664   -0.3976   53.7787 C.3     1  ZINC000517001504   -0.0600
     21 C21       -11.9655    0.6385   53.3325 C.ar    1  ZINC000517001504   -0.0700
     22 C22       -11.7003    1.4227   52.2254 C.ar    1  ZINC000517001504   -0.1200
     23 C23       -12.6169    2.3731   51.8161 C.ar    1  ZINC000517001504   -0.1100
     24 C24       -13.7989    2.5390   52.5135 C.ar    1  ZINC000517001504   -0.1100
     25 C25       -14.0644    1.7540   53.6199 C.ar    1  ZINC000517001504   -0.1100
     26 C26       -13.1498    0.8008   54.0267 C.ar    1  ZINC000517001504   -0.1000
     27 C27       -11.5335   -1.8270   53.8213 C.3     1  ZINC000517001504   -0.1600
     28 C28       -10.7614   -2.0027   55.1139 C.2     1  ZINC000517001504    0.3600
     29 O29       -10.2968   -2.9351   55.7246 O.2     1  ZINC000517001504   -0.4100
     30 C30       -10.8247   -0.5006   55.3072 C.3     1  ZINC000517001504   -0.1900
     31 H31       -10.2491    1.6774   54.5482 H       1  ZINC000517001504    0.1000
     32 H32        -8.5637    1.7557   55.1233 H       1  ZINC000517001504    0.0800
     33 H33        -9.7772    3.2718   52.7663 H       1  ZINC000517001504    0.0600
     34 H34        -9.1788    3.9657   54.2933 H       1  ZINC000517001504    0.1100
     35 H35        -5.2682    3.1806   53.3042 H       1  ZINC000517001504    0.1400
     36 H36        -3.0068    3.5476   52.4016 H       1  ZINC000517001504    0.1400
     37 H37        -4.3307    2.2538   48.5593 H       1  ZINC000517001504    0.1400
     38 H38        -6.5911    1.8832   49.4628 H       1  ZINC000517001504    0.1400
     39 H39        -6.7249    0.7349   53.3084 H       1  ZINC000517001504    0.0800
     40 H40        -7.4757    0.1328   51.8081 H       1  ZINC000517001504    0.1100
     41 H41       -10.7769    1.2932   51.6806 H       1  ZINC000517001504    0.1300
     42 H42       -12.4094    2.9864   50.9516 H       1  ZINC000517001504    0.1300
     43 H43       -14.5146    3.2819   52.1941 H       1  ZINC000517001504    0.1300
     44 H44       -14.9878    1.8837   54.1650 H       1  ZINC000517001504    0.1300
     45 H45       -13.3574    0.1875   54.8912 H       1  ZINC000517001504    0.1200
     46 H46       -12.6153   -1.8650   53.9492 H       1  ZINC000517001504    0.1300
     47 H47       -11.1789   -2.4627   53.0099 H       1  ZINC000517001504    0.1100
     48 H48        -9.9001   -0.0694   55.6910 H       1  ZINC000517001504    0.1000
     49 H49       -11.7077   -0.1664   55.8520 H       1  ZINC000517001504    0.1400
@<TRIPOS>BOND
     1     1     2    2
     2     2     3   am
     3     2    20    1
     4     3    19    1
     5     3     4    1
     6     4     5    1
     7     4    31    1
     8     4    32    1
     9     5     6    1
    10     5    33    1
    11     5    34    1
    12     6     7    1
    13     7     8    1
    14     7     9    1
    15     7    19    1
    16     9    18   ar
    17     9    10   ar
    18    10    11   ar
    19    10    35    1
    20    11    12   ar
    21    11    36    1
    22    12    13    1
    23    12    17   ar
    24    13    14    1
    25    13    15    1
    26    13    16    1
    27    17    18   ar
    28    17    37    1
    29    18    38    1
    30    19    39    1
    31    19    40    1
    32    20    30    1
    33    20    21    1
    34    20    27    1
    35    21    26   ar
    36    21    22   ar
    37    22    23   ar
    38    22    41    1
    39    23    24   ar
    40    23    42    1
    41    24    25   ar
    42    24    43    1
    43    25    26   ar
    44    25    44    1
    45    26    45    1
    46    27    28    1
    47    27    46    1
    48    27    47    1
    49    28    29    2
    50    28    30    1
    51    30    48    1
    52    30    49    1
@<TRIPOS>SUBSTRUCTURE
     1 ZINC000517001504        1 TEMP              0 ****  ****    0 ROOT


##########                                Name:    ZINC001013196242
##########                DOCK_Rotatable_Bonds:                   5
##########                         Heavy_Atoms:                  24
##########                    Molecular_Weight:              349.86
##########                DOCK_Rotatable_Bonds:                   5
##########                       Formal_Charge:        -3.05474e-07
##########                     HBond_Acceptors:                   6
##########                        HBond_Donors:                   1
##########                         Heavy_Atoms:                  24
##########                          Grid_Score:          -25.834084
##########                     Grid_vdw_energy:          -25.350246
##########                      Grid_es_energy:           -0.483836
##########           Internal_energy_repulsive:           12.982488

@<TRIPOS>MOLECULE
ZINC001013196242
 48 51 1 0 0
SMALL
USER_CHARGES


@<TRIPOS>ATOM
      1 C1          0.3659    3.2183   45.6069 C.3     1  ZINC001013196242   -0.1600
      2 C2         -0.3207    2.2605   46.5827 C.3     1  ZINC001013196242    0.1400
      3 H3         -0.8196    1.4639   46.0308 H       1  ZINC001013196242    0.0800
      4 C4         -1.3492    3.0304   47.4377 C.3     1  ZINC001013196242   -0.1400
      5 C5         -1.1966    2.3771   48.8368 C.3     1  ZINC001013196242    0.1300
      6 H6         -1.7724    1.4539   48.9018 H       1  ZINC001013196242    0.1100
      7 N7         -1.5843    3.3104   49.8973 N.am    1  ZINC001013196242   -0.7200
      8 C8         -2.8635    3.3571   50.3193 C.2     1  ZINC001013196242    0.5400
      9 O9         -3.6931    2.6254   49.8222 O.2     1  ZINC001013196242   -0.5200
     10 C10        -3.2627    4.3185   51.4089 C.3     1  ZINC001013196242   -0.1400
     11 C11        -2.6908    3.9552   52.7906 C.3     1  ZINC001013196242   -0.0800
     12 C12        -1.4756    4.8123   52.4202 C.3     1  ZINC001013196242   -0.1600
     13 C13        -0.3797    5.3527   53.3321 C.3     1  ZINC001013196242   -0.1700
     14 C14        -0.0312    4.3729   52.2083 C.3     1  ZINC001013196242   -0.1400
     15 C15        -2.3899    5.5847   51.4631 C.3     1  ZINC001013196242   -0.0800
     16 C16         0.3246    2.0868   48.8802 C.3     1  ZINC001013196242    0.0800
     17 N17         0.6728    1.6858   47.5015 N.am    1  ZINC001013196242   -0.6000
     18 C18         1.7259    0.9228   47.1478 C.2     1  ZINC001013196242    0.6100
     19 O19         1.9176    0.6557   45.9760 O.2     1  ZINC001013196242   -0.5400
     20 C20         2.6411    0.4144   48.1750 C.2     1  ZINC001013196242   -0.0400
     21 C21         2.5595   -0.8092   48.8055 C.2     1  ZINC001013196242   -0.1400
     22 C22         3.6278   -0.8800   49.7058 C.2     1  ZINC001013196242   -0.1200
     23 Cl23        3.9923   -2.2127   50.7568 Cl      1  ZINC001013196242   -0.0400
     24 C24         4.3279    0.2766   49.6116 C.2     1  ZINC001013196242    0.0400
     25 N25         3.7410    1.0694   48.6807 N.pl3   1  ZINC001013196242   -0.4000
     26 C26         4.1970    2.4043   48.2852 C.3     1  ZINC001013196242    0.0700
     27 H27         1.0944    2.6690   45.0106 H       1  ZINC001013196242    0.0700
     28 H28        -0.3805    3.6635   44.9490 H       1  ZINC001013196242    0.0700
     29 H29         0.8729    4.0048   46.1659 H       1  ZINC001013196242    0.0600
     30 H30        -1.1004    4.0908   47.4781 H       1  ZINC001013196242    0.0900
     31 H31        -2.3580    2.8842   47.0519 H       1  ZINC001013196242    0.0900
     32 H32        -0.9205    3.8948   50.2957 H       1  ZINC001013196242    0.4000
     33 H33        -4.3328    4.5256   51.4191 H       1  ZINC001013196242    0.1000
     34 H34        -3.2706    4.3550   53.6226 H       1  ZINC001013196242    0.1000
     35 H35        -2.4606    2.8958   52.9036 H       1  ZINC001013196242    0.0700
     36 H36        -0.0844    6.3938   53.2020 H       1  ZINC001013196242    0.1000
     37 H37        -0.3458    4.9783   54.3551 H       1  ZINC001013196242    0.0900
     38 H38         0.2320    3.3539   52.4922 H       1  ZINC001013196242    0.0900
     39 H39         0.4934    4.7696   51.3390 H       1  ZINC001013196242    0.1000
     40 H40        -1.9184    5.8318   50.5120 H       1  ZINC001013196242    0.0800
     41 H41        -2.8859    6.4381   51.9256 H       1  ZINC001013196242    0.0900
     42 H42         0.8738    2.9839   49.1658 H       1  ZINC001013196242    0.0800
     43 H43         0.5359    1.2740   49.5751 H       1  ZINC001013196242    0.1000
     44 H44         1.8114   -1.5696   48.6364 H       1  ZINC001013196242    0.1600
     45 H45         5.2110    0.5247   50.1816 H       1  ZINC001013196242    0.1800
     46 H46         4.8225    2.3259   47.3960 H       1  ZINC001013196242    0.0800
     47 H47         3.3340    3.0335   48.0680 H       1  ZINC001013196242    0.1000
     48 H48         4.7740    2.8465   49.0974 H       1  ZINC001013196242    0.0900
@<TRIPOS>BOND
     1     1     2    1
     2     1    27    1
     3     1    28    1
     4     1    29    1
     5     2     3    1
     6     2    17    1
     7     2     4    1
     8     4     5    1
     9     4    30    1
    10     4    31    1
    11     5     6    1
    12     5     7    1
    13     5    16    1
    14     7     8   am
    15     7    32    1
    16     8     9    2
    17     8    10    1
    18    10    15    1
    19    10    11    1
    20    10    33    1
    21    11    12    1
    22    11    34    1
    23    11    35    1
    24    12    14    1
    25    12    13    1
    26    12    15    1
    27    13    14    1
    28    13    36    1
    29    13    37    1
    30    14    38    1
    31    14    39    1
    32    15    40    1
    33    15    41    1
    34    16    17    1
    35    16    42    1
    36    16    43    1
    37    17    18   am
    38    18    19    2
    39    18    20    1
    40    20    25    1
    41    20    21    2
    42    21    22    1
    43    21    44    1
    44    22    23    1
    45    22    24    2
    46    24    25    1
    47    24    45    1
    48    25    26    1
    49    26    46    1
    50    26    47    1
    51    26    48    1
@<TRIPOS>SUBSTRUCTURE
     1 ZINC001013196242        1 TEMP              0 ****  ****    0 ROOT


##########                                Name:    ZINC000561219098
##########                DOCK_Rotatable_Bonds:                   4
##########                         Heavy_Atoms:                  28
##########                    Molecular_Weight:             423.273
##########                DOCK_Rotatable_Bonds:                   4
##########                       Formal_Charge:          0.00999953
##########                     HBond_Acceptors:                   9
##########                        HBond_Donors:                   1
##########                         Heavy_Atoms:                  28
##########                          Grid_Score:          -25.700073
##########                     Grid_vdw_energy:          -26.106791
##########                      Grid_es_energy:            0.406718
##########           Internal_energy_repulsive:           17.219143

@<TRIPOS>MOLECULE
ZINC000561219098
 45 48 1 0 0
SMALL
USER_CHARGES


@<TRIPOS>ATOM
      1 C1         -9.8190    3.3878   59.2746 C.3     1  ZINC000561219098    0.0700
      2 N2        -10.1547    3.2103   57.8597 N.pl3   1  ZINC000561219098   -0.4500
      3 C3        -11.3915    3.3828   57.3110 C.2     1  ZINC000561219098   -0.0100
      4 C4        -11.3122    3.1315   55.9907 C.2     1  ZINC000561219098   -0.1700
      5 C5         -9.9667    2.7877   55.7059 C.2     1  ZINC000561219098   -0.1100
      6 C6         -9.4096    2.4314   54.3760 C.2     1  ZINC000561219098    0.1600
      7 N7        -10.0800    2.4053   53.2427 N.2     1  ZINC000561219098   -0.2700
      8 N8         -9.2093    2.0238   52.2147 N.pl3   1  ZINC000561219098   -0.4700
      9 C9         -7.9746    1.8163   52.7643 C.2     1  ZINC000561219098    0.0300
     10 C10        -6.7580    1.4027   52.0464 C.2     1  ZINC000561219098    0.5900
     11 O11        -6.6934    0.2957   51.5466 O.2     1  ZINC000561219098   -0.5000
     12 N12        -5.7155    2.2506   51.9429 N.am    1  ZINC000561219098   -0.6100
     13 C13        -5.7702    3.5947   52.5393 C.3     1  ZINC000561219098    0.0500
     14 C14        -5.3587    4.6146   51.4715 C.3     1  ZINC000561219098    0.0500
     15 O15        -4.1066    4.2225   50.9037 O.3     1  ZINC000561219098   -0.3700
     16 C16        -4.1397    2.9639   50.2264 C.3     1  ZINC000561219098    0.1200
     17 H17        -4.8943    2.9931   49.4404 H       1  ZINC000561219098    0.0900
     18 C18        -2.7897    2.6841   49.6180 C.ar    1  ZINC000561219098   -0.0500
     19 C19        -2.6968    2.2765   48.3009 C.ar    1  ZINC000561219098   -0.1000
     20 C20        -1.4567    2.0198   47.7415 C.ar    1  ZINC000561219098    0.1200
     21 F21        -1.3655    1.6217   46.4537 F       1  ZINC000561219098   -0.1200
     22 C22        -0.3093    2.1718   48.5029 C.ar    1  ZINC000561219098   -0.0600
     23 Cl23        1.2465    1.8508   47.8027 Cl      1  ZINC000561219098   -0.0300
     24 C24        -0.4038    2.5798   49.8210 C.ar    1  ZINC000561219098   -0.0700
     25 C25        -1.6432    2.8410   50.3770 C.ar    1  ZINC000561219098   -0.0300
     26 Cl26       -1.7615    3.3537   52.0313 Cl      1  ZINC000561219098   -0.0400
     27 C27        -4.4866    1.8574   51.2354 C.3     1  ZINC000561219098    0.0900
     28 C28        -8.0796    2.0721   54.1143 C.2     1  ZINC000561219098   -0.1700
     29 C29        -9.2808    2.8520   56.8780 C.2     1  ZINC000561219098    0.0300
     30 H30        -9.5252    4.4225   59.4514 H       1  ZINC000561219098    0.0800
     31 H31       -10.6879    3.1470   59.8871 H       1  ZINC000561219098    0.0900
     32 H32        -8.9941    2.7258   59.5382 H       1  ZINC000561219098    0.0900
     33 H33       -12.2841    3.6721   57.8458 H       1  ZINC000561219098    0.1700
     34 H34       -12.1238    3.1825   55.2799 H       1  ZINC000561219098    0.1400
     35 H35        -9.4411    1.9236   51.2781 H       1  ZINC000561219098    0.4400
     36 H36        -6.7850    3.8056   52.8768 H       1  ZINC000561219098    0.1000
     37 H37        -5.0831    3.6498   53.3838 H       1  ZINC000561219098    0.0900
     38 H38        -6.1178    4.6499   50.6900 H       1  ZINC000561219098    0.0700
     39 H39        -5.2590    5.5994   51.9279 H       1  ZINC000561219098    0.1200
     40 H40        -3.5917    2.1579   47.7080 H       1  ZINC000561219098    0.1600
     41 H41         0.4902    2.6981   50.4152 H       1  ZINC000561219098    0.1600
     42 H42        -3.6689    1.7393   51.9464 H       1  ZINC000561219098    0.0900
     43 H43        -4.6532    0.9183   50.7075 H       1  ZINC000561219098    0.1100
     44 H44        -7.2833    2.0016   54.8406 H       1  ZINC000561219098    0.1600
     45 H45        -8.2284    2.6473   57.0091 H       1  ZINC000561219098    0.1700
@<TRIPOS>BOND
     1     1     2    1
     2     1    30    1
     3     1    31    1
     4     1    32    1
     5     2    29    1
     6     2     3    1
     7     3     4    2
     8     3    33    1
     9     4     5    1
    10     4    34    1
    11     5     6    1
    12     5    29    2
    13     6    28    1
    14     6     7    2
    15     7     8    1
    16     8     9    1
    17     8    35    1
    18     9    10    1
    19     9    28    2
    20    10    11    2
    21    10    12   am
    22    12    27    1
    23    12    13    1
    24    13    14    1
    25    13    36    1
    26    13    37    1
    27    14    15    1
    28    14    38    1
    29    14    39    1
    30    15    16    1
    31    16    17    1
    32    16    18    1
    33    16    27    1
    34    18    25   ar
    35    18    19   ar
    36    19    20   ar
    37    19    40    1
    38    20    21    1
    39    20    22   ar
    40    22    23    1
    41    22    24   ar
    42    24    25   ar
    43    24    41    1
    44    25    26    1
    45    27    42    1
    46    27    43    1
    47    28    44    1
    48    29    45    1
@<TRIPOS>SUBSTRUCTURE
     1 ZINC000561219098        1 TEMP              0 ****  ****    0 ROOT


##########                                Name:    ZINC000279974681
##########                DOCK_Rotatable_Bonds:                   4
##########                         Heavy_Atoms:                  23
##########                    Molecular_Weight:              338.79
##########                DOCK_Rotatable_Bonds:                   4
##########                       Formal_Charge:           0.0100008
##########                     HBond_Acceptors:                   7
##########                        HBond_Donors:                   1
##########                         Heavy_Atoms:                  23
##########                          Grid_Score:          -25.621956
##########                     Grid_vdw_energy:          -25.872009
##########                      Grid_es_energy:            0.250054
##########           Internal_energy_repulsive:           13.564655

@<TRIPOS>MOLECULE
ZINC000279974681
 42 45 1 0 0
SMALL
USER_CHARGES


@<TRIPOS>ATOM
      1 C1          0.7994    3.8529   44.2553 C.3     1  ZINC000279974681   -0.1400
      2 C2          0.6654    2.9273   45.4662 C.3     1  ZINC000279974681    0.0700
      3 H3         -0.1128    2.1884   45.2752 H       1  ZINC000279974681    0.0600
      4 C4          0.2949    3.7532   46.7034 C.3     1  ZINC000279974681    0.1000
      5 N5          0.3561    2.8753   47.8827 N.am    1  ZINC000279974681   -0.6300
      6 C6         -0.6710    2.8101   48.7531 C.2     1  ZINC000279974681    0.7100
      7 O7         -0.6013    2.0785   49.7218 O.2     1  ZINC000279974681   -0.5600
      8 N8         -1.7751    3.5557   48.5496 N.am    1  ZINC000279974681   -0.6700
      9 C9         -2.8434    3.4878   49.4550 C.ar    1  ZINC000279974681    0.2000
     10 C10        -3.6341    2.3489   49.5113 C.ar    1  ZINC000279974681   -0.1200
     11 C11        -4.6891    2.2820   50.4063 C.ar    1  ZINC000279974681    0.0700
     12 C12        -4.9546    3.3586   51.2486 C.ar    1  ZINC000279974681    0.0200
     13 C13        -4.1634    4.4946   51.1895 C.ar    1  ZINC000279974681   -0.0700
     14 C14        -3.1069    4.5585   50.3001 C.ar    1  ZINC000279974681   -0.0700
     15 Cl15       -2.1180    5.9835   50.2288 Cl      1  ZINC000279974681   -0.0500
     16 O16        -6.0334    3.0477   52.0268 O.3     1  ZINC000279974681   -0.3000
     17 C17        -6.6744    1.9385   51.3697 C.3     1  ZINC000279974681    0.2100
     18 O18        -5.6008    1.2968   50.6564 O.3     1  ZINC000279974681   -0.3000
     19 C19         1.5714    2.0704   48.0836 C.3     1  ZINC000279974681    0.0800
     20 C20         1.8797    1.3266   46.7791 C.3     1  ZINC000279974681    0.1100
     21 H21         1.1063    0.5811   46.5936 H       1  ZINC000279974681    0.0700
     22 C22         3.2394    0.6345   46.8946 C.3     1  ZINC000279974681   -0.1600
     23 C23         3.8629    0.5301   48.2879 C.3     1  ZINC000279974681   -0.1700
     24 C24         3.2860   -0.7158   47.6127 C.3     1  ZINC000279974681   -0.1600
     25 O25         1.9092    2.2619   45.6984 O.3     1  ZINC000279974681   -0.3600
     26 H26         1.0646    3.2653   43.3763 H       1  ZINC000279974681    0.0700
     27 H27        -0.1487    4.3613   44.0799 H       1  ZINC000279974681    0.0800
     28 H28         1.5777    4.5916   44.4469 H       1  ZINC000279974681    0.0700
     29 H29         1.0009    4.5754   46.8208 H       1  ZINC000279974681    0.0800
     30 H30        -0.7147    4.1486   46.5919 H       1  ZINC000279974681    0.1100
     31 H31        -1.8305    4.1393   47.7768 H       1  ZINC000279974681    0.4100
     32 H32        -3.4270    1.5149   48.8570 H       1  ZINC000279974681    0.1800
     33 H33        -4.3696    5.3298   51.8426 H       1  ZINC000279974681    0.1500
     34 H34        -7.1081    1.2580   52.1023 H       1  ZINC000279974681    0.1400
     35 H35        -7.4370    2.2929   50.6761 H       1  ZINC000279974681    0.0900
     36 H36         2.4059    2.7231   48.3400 H       1  ZINC000279974681    0.0900
     37 H37         1.4071    1.3514   48.8862 H       1  ZINC000279974681    0.0900
     38 H38         3.9137    0.7791   46.0506 H       1  ZINC000279974681    0.1100
     39 H39         4.9478    0.6063   48.3608 H       1  ZINC000279974681    0.1000
     40 H40         3.3045    0.9545   49.1223 H       1  ZINC000279974681    0.1000
     41 H41         2.3480   -1.1110   48.0029 H       1  ZINC000279974681    0.1000
     42 H42         3.9913   -1.4592   47.2414 H       1  ZINC000279974681    0.1000
@<TRIPOS>BOND
     1     1     2    1
     2     1    26    1
     3     1    27    1
     4     1    28    1
     5     2     3    1
     6     2    25    1
     7     2     4    1
     8     4     5    1
     9     4    29    1
    10     4    30    1
    11     5     6   am
    12     5    19    1
    13     6     7    2
    14     6     8   am
    15     8     9    1
    16     8    31    1
    17     9    14   ar
    18     9    10   ar
    19    10    11   ar
    20    10    32    1
    21    11    18    1
    22    11    12   ar
    23    12    13   ar
    24    12    16    1
    25    13    14   ar
    26    13    33    1
    27    14    15    1
    28    16    17    1
    29    17    18    1
    30    17    34    1
    31    17    35    1
    32    19    20    1
    33    19    36    1
    34    19    37    1
    35    20    21    1
    36    20    22    1
    37    20    25    1
    38    22    24    1
    39    22    23    1
    40    22    38    1
    41    23    24    1
    42    23    39    1
    43    23    40    1
    44    24    41    1
    45    24    42    1
@<TRIPOS>SUBSTRUCTURE
     1 ZINC000279974681        1 TEMP              0 ****  ****    0 ROOT


##########                                Name:    ZINC000518937710
##########                DOCK_Rotatable_Bonds:                   6
##########                         Heavy_Atoms:                  25
##########                    Molecular_Weight:             397.421
##########                DOCK_Rotatable_Bonds:                   6
##########                       Formal_Charge:          -0.0199997
##########                     HBond_Acceptors:                  11
##########                        HBond_Donors:                   0
##########                         Heavy_Atoms:                  25
##########                          Grid_Score:          -25.533871
##########                     Grid_vdw_energy:          -24.861166
##########                      Grid_es_energy:           -0.672706
##########           Internal_energy_repulsive:           21.505312

@<TRIPOS>MOLECULE
ZINC000518937710
 42 44 1 0 0
SMALL
USER_CHARGES


@<TRIPOS>ATOM
      1 C1          4.0234    2.7125   48.6875 C.3     1  ZINC000518937710   -0.1900
      2 C2          2.7600    2.0977   49.2930 C.3     1  ZINC000518937710    0.1700
      3 H3          2.0602    1.8465   48.4961 H       1  ZINC000518937710    0.1100
      4 C4          3.1296    0.8300   50.0658 C.3     1  ZINC000518937710   -0.6600
      5 S5          3.1947   -0.5774   48.9230 S.o2    1  ZINC000518937710    2.4000
      6 C6          3.1404   -1.9879   50.0622 C.3     1  ZINC000518937710   -0.6600
      7 O7          2.0081   -0.5809   48.1412 O.2     1  ZINC000518937710   -0.9200
      8 O8          4.4563   -0.5718   48.2692 O.2     1  ZINC000518937710   -0.9300
      9 N9          2.1367    3.0607   50.2044 N.am    1  ZINC000518937710   -0.9600
     10 C10         2.3823    2.9700   51.6457 C.3     1  ZINC000518937710    0.0800
     11 C11         3.8222    3.1526   52.1299 C.3     1  ZINC000518937710   -0.1800
     12 C12         2.7871    4.2523   52.3755 C.3     1  ZINC000518937710   -0.1800
     13 S13         1.1545    4.2517   49.6051 S.o2    1  ZINC000518937710    2.6900
     14 O14         0.5936    4.9134   50.7307 O.2     1  ZINC000518937710   -0.9400
     15 O15         1.9044    4.9238   48.6026 O.2     1  ZINC000518937710   -0.9400
     16 C16        -0.1830    3.4574   48.7774 C.ar    1  ZINC000518937710   -0.6400
     17 C17        -0.0652    3.1176   47.4426 C.ar    1  ZINC000518937710   -0.0300
     18 C18        -1.1125    2.4943   46.7899 C.ar    1  ZINC000518937710   -0.1300
     19 C19        -2.2817    2.2077   47.4694 C.ar    1  ZINC000518937710   -0.0300
     20 C20        -2.4067    2.5453   48.8072 C.ar    1  ZINC000518937710    0.0200
     21 C21        -1.3498    3.1686   49.4661 C.ar    1  ZINC000518937710    0.1900
     22 O22        -1.7161    3.3954   50.7614 O.3     1  ZINC000518937710   -0.2800
     23 C23        -3.1509    3.2761   50.7816 C.3     1  ZINC000518937710    0.5700
     24 F24        -3.5814    2.7252   51.9933 F       1  ZINC000518937710   -0.1200
     25 F25        -3.7508    4.5221   50.5691 F       1  ZINC000518937710   -0.1400
     26 O26        -3.4335    2.3775   49.6909 O.3     1  ZINC000518937710   -0.2900
     27 H27         4.7078    2.9973   49.4866 H       1  ZINC000518937710    0.1000
     28 H28         4.5068    1.9830   48.0377 H       1  ZINC000518937710    0.0800
     29 H29         3.7555    3.5951   48.1068 H       1  ZINC000518937710    0.0700
     30 H30         4.1044    0.9619   50.5353 H       1  ZINC000518937710    0.1600
     31 H31         2.3792    0.6404   50.8332 H       1  ZINC000518937710    0.1400
     32 H32         2.1813   -2.0000   50.5801 H       1  ZINC000518937710    0.1300
     33 H33         3.2613   -2.9139   49.5000 H       1  ZINC000518937710    0.1300
     34 H34         3.9457   -1.8976   50.7911 H       1  ZINC000518937710    0.1300
     35 H35         1.7557    2.2601   52.1857 H       1  ZINC000518937710    0.1500
     36 H36         4.1431    2.5627   52.9885 H       1  ZINC000518937710    0.1100
     37 H37         4.5866    3.3403   51.3760 H       1  ZINC000518937710    0.1000
     38 H38         2.8707    5.1635   51.7832 H       1  ZINC000518937710    0.1000
     39 H39         2.4271    4.3859   53.3957 H       1  ZINC000518937710    0.1000
     40 H40         0.8467    3.3400   46.9084 H       1  ZINC000518937710    0.1600
     41 H41        -1.0171    2.2311   45.7469 H       1  ZINC000518937710    0.1600
     42 H42        -3.0982    1.7206   46.9570 H       1  ZINC000518937710    0.1500
@<TRIPOS>BOND
     1     1     2    1
     2     1    27    1
     3     1    28    1
     4     1    29    1
     5     2     3    1
     6     2     4    1
     7     2     9    1
     8     4     5    1
     9     4    30    1
    10     4    31    1
    11     5     6    1
    12     5     7    2
    13     5     8    2
    14     6    32    1
    15     6    33    1
    16     6    34    1
    17     9    10    1
    18     9    13   am
    19    10    12    1
    20    10    11    1
    21    10    35    1
    22    11    12    1
    23    11    36    1
    24    11    37    1
    25    12    38    1
    26    12    39    1
    27    13    14    2
    28    13    15    2
    29    13    16    1
    30    16    21   ar
    31    16    17   ar
    32    17    18   ar
    33    17    40    1
    34    18    19   ar
    35    18    41    1
    36    19    20   ar
    37    19    42    1
    38    20    26    1
    39    20    21   ar
    40    21    22    1
    41    22    23    1
    42    23    24    1
    43    23    25    1
    44    23    26    1
@<TRIPOS>SUBSTRUCTURE
     1 ZINC000518937710        1 TEMP              0 ****  ****    0 ROOT


##########                                Name:    ZINC001318556452
##########                DOCK_Rotatable_Bonds:                   4
##########                         Heavy_Atoms:                  26
##########                    Molecular_Weight:             368.456
##########                DOCK_Rotatable_Bonds:                   4
##########                       Formal_Charge:          -0.0200005
##########                     HBond_Acceptors:                   6
##########                        HBond_Donors:                   1
##########                         Heavy_Atoms:                  26
##########                          Grid_Score:          -25.519600
##########                     Grid_vdw_energy:          -25.647665
##########                      Grid_es_energy:            0.128065
##########           Internal_energy_repulsive:           18.410345

@<TRIPOS>MOLECULE
ZINC001318556452
 46 48 1 0 0
SMALL
USER_CHARGES


@<TRIPOS>ATOM
      1 C1         -7.2892    3.1023   53.6564 C.3     1  ZINC001318556452   -0.1300
      2 C2         -7.4642    1.7547   53.0050 C.ar    1  ZINC001318556452   -0.1000
      3 C3         -8.5966    1.0064   53.2581 C.ar    1  ZINC001318556452   -0.0500
      4 C4         -9.6579    1.5379   54.1868 C.3     1  ZINC001318556452   -0.4100
      5 S5        -10.8702    2.4946   53.2352 S.o     1  ZINC001318556452    1.2500
      6 C6        -12.0454    3.0414   54.5042 C.3     1  ZINC001318556452   -0.4900
      7 O7        -11.5318    1.6382   52.3143 O.2     1  ZINC001318556452   -0.8400
      8 C8         -8.7584   -0.2301   52.6600 C.ar    1  ZINC001318556452   -0.1200
      9 C9         -7.7869   -0.7217   51.8077 C.ar    1  ZINC001318556452   -0.1000
     10 C10        -6.6512    0.0213   51.5508 C.ar    1  ZINC001318556452   -0.1200
     11 C11        -6.4887    1.2663   52.1447 C.ar    1  ZINC001318556452    0.1400
     12 N12        -5.3407    2.0210   51.8866 N.am    1  ZINC001318556452   -0.6600
     13 C13        -5.4097    3.0980   51.0794 C.2     1  ZINC001318556452    0.5600
     14 O14        -6.4697    3.4131   50.5760 O.2     1  ZINC001318556452   -0.5000
     15 C15        -4.1921    3.8985   50.8056 C.2     1  ZINC001318556452   -0.0300
     16 C16        -3.8921    4.9944   51.5635 C.2     1  ZINC001318556452   -0.1600
     17 C17        -2.6847    5.7627   51.2695 C.2     1  ZINC001318556452    0.5300
     18 O18        -2.4166    6.7404   51.9450 O.2     1  ZINC001318556452   -0.5200
     19 N19        -1.8651    5.4067   50.2652 N.am    1  ZINC001318556452   -0.5200
     20 C20        -0.6635    6.2027   50.0031 C.3     1  ZINC001318556452    0.0600
     21 C21        -2.1321    4.3076   49.4772 C.ar    1  ZINC001318556452    0.1800
     22 C22        -1.2701    3.9558   48.4418 C.ar    1  ZINC001318556452   -0.1700
     23 C23        -1.5491    2.8547   47.6619 C.ar    1  ZINC001318556452   -0.0600
     24 C24        -2.6833    2.0901   47.8979 C.ar    1  ZINC001318556452   -0.1500
     25 C25        -3.5428    2.4169   48.9083 C.ar    1  ZINC001318556452   -0.0600
     26 C26        -3.2769    3.5264   49.7158 C.ar    1  ZINC001318556452   -0.1100
     27 H27        -7.7240    3.8728   53.0198 H       1  ZINC001318556452    0.0800
     28 H28        -7.7900    3.1056   54.6245 H       1  ZINC001318556452    0.0800
     29 H29        -6.2270    3.3032   53.7962 H       1  ZINC001318556452    0.0700
     30 H30       -10.1589    0.7051   54.6804 H       1  ZINC001318556452    0.1000
     31 H31        -9.1960    2.1801   54.9366 H       1  ZINC001318556452    0.1300
     32 H32       -11.5238    3.6460   55.2461 H       1  ZINC001318556452    0.1100
     33 H33       -12.8320    3.6357   54.0390 H       1  ZINC001318556452    0.1100
     34 H34       -12.4867    2.1710   54.9899 H       1  ZINC001318556452    0.0800
     35 H35        -9.6453   -0.8132   52.8594 H       1  ZINC001318556452    0.1200
     36 H36        -7.9162   -1.6878   51.3425 H       1  ZINC001318556452    0.1300
     37 H37        -5.8927   -0.3635   50.8853 H       1  ZINC001318556452    0.1500
     38 H38        -4.4944    1.7695   52.2884 H       1  ZINC001318556452    0.4100
     39 H39        -4.5424    5.2909   52.3732 H       1  ZINC001318556452    0.1600
     40 H40        -0.6105    7.0261   50.7153 H       1  ZINC001318556452    0.1000
     41 H41         0.2198    5.5730   50.1093 H       1  ZINC001318556452    0.0800
     42 H42        -0.7057    6.6013   48.9894 H       1  ZINC001318556452    0.0800
     43 H43        -0.3853    4.5447   48.2503 H       1  ZINC001318556452    0.1400
     44 H44        -0.8791    2.5842   46.8592 H       1  ZINC001318556452    0.1300
     45 H45        -2.8882    1.2301   47.2774 H       1  ZINC001318556452    0.1300
     46 H46        -4.4232    1.8169   49.0855 H       1  ZINC001318556452    0.1700
@<TRIPOS>BOND
     1     1     2    1
     2     1    27    1
     3     1    28    1
     4     1    29    1
     5     2    11   ar
     6     2     3   ar
     7     3     4    1
     8     3     8   ar
     9     4     5    1
    10     4    30    1
    11     4    31    1
    12     5     6    1
    13     5     7    2
    14     6    32    1
    15     6    33    1
    16     6    34    1
    17     8     9   ar
    18     8    35    1
    19     9    10   ar
    20     9    36    1
    21    10    11   ar
    22    10    37    1
    23    11    12    1
    24    12    13   am
    25    12    38    1
    26    13    14    2
    27    13    15    1
    28    15    26    1
    29    15    16    2
    30    16    17    1
    31    16    39    1
    32    17    18    2
    33    17    19   am
    34    19    20    1
    35    19    21    1
    36    20    40    1
    37    20    41    1
    38    20    42    1
    39    21    26   ar
    40    21    22   ar
    41    22    23   ar
    42    22    43    1
    43    23    24   ar
    44    23    44    1
    45    24    25   ar
    46    24    45    1
    47    25    26   ar
    48    25    46    1
@<TRIPOS>SUBSTRUCTURE
     1 ZINC001318556452        1 TEMP              0 ****  ****    0 ROOT


##########                                Name:    ZINC000347662449
##########                DOCK_Rotatable_Bonds:                   5
##########                         Heavy_Atoms:                  23
##########                    Molecular_Weight:              327.45
##########                DOCK_Rotatable_Bonds:                   5
##########                       Formal_Charge:                0.03
##########                     HBond_Acceptors:                   5
##########                        HBond_Donors:                   0
##########                         Heavy_Atoms:                  23
##########                          Grid_Score:          -25.505371
##########                     Grid_vdw_energy:          -25.286898
##########                      Grid_es_energy:           -0.218473
##########           Internal_energy_repulsive:            6.930686

@<TRIPOS>MOLECULE
ZINC000347662449
 44 46 1 0 0
SMALL
USER_CHARGES


@<TRIPOS>ATOM
      1 C1         -9.3455    0.4162   64.0713 C.2     1  ZINC000347662449   -0.1800
      2 C2         -9.9245    0.2275   62.9114 C.2     1  ZINC000347662449   -0.1700
      3 C3         -9.1014   -0.1746   61.7149 C.3     1  ZINC000347662449    0.1600
      4 N4         -9.9146   -0.9987   60.8173 N.am    1  ZINC000347662449   -0.6200
      5 C5        -11.3527   -1.2374   60.9879 C.3     1  ZINC000347662449    0.1100
      6 C6        -11.8475   -1.7653   59.6230 C.3     1  ZINC000347662449   -0.1100
      7 C7        -10.5561   -2.3804   59.0359 C.3     1  ZINC000347662449   -0.1200
      8 H8        -10.5027   -3.4450   59.2637 H       1  ZINC000347662449    0.1400
      9 S9        -10.4833   -2.1125   57.2473 S.3     1  ZINC000347662449    0.0300
     10 C10       -11.7801   -3.1848   56.7243 C.2     1  ZINC000347662449    0.1900
     11 N11       -12.1793   -4.2687   57.3481 N.2     1  ZINC000347662449   -0.4500
     12 C12       -13.1876   -4.8319   56.6613 C.2     1  ZINC000347662449   -0.0100
     13 C13       -13.4312   -4.0815   55.5732 C.2     1  ZINC000347662449   -0.0400
     14 N14       -12.5440   -3.0269   55.6056 N.pl3   1  ZINC000347662449   -0.4000
     15 C15       -12.4412   -1.9935   54.6638 C.ar    1  ZINC000347662449    0.1100
     16 C16       -11.9609   -2.2598   53.3889 C.ar    1  ZINC000347662449   -0.1100
     17 C17       -11.8606   -1.2395   52.4630 C.ar    1  ZINC000347662449   -0.1000
     18 C18       -12.2381    0.0458   52.8050 C.ar    1  ZINC000347662449   -0.0800
     19 C19       -12.1280    1.1565   51.7924 C.3     1  ZINC000347662449   -0.1200
     20 C20       -12.7170    0.3141   54.0743 C.ar    1  ZINC000347662449   -0.0700
     21 C21       -13.1275    1.7165   54.4431 C.3     1  ZINC000347662449   -0.1200
     22 C22       -12.8249   -0.7028   55.0025 C.ar    1  ZINC000347662449   -0.1100
     23 C23        -9.4408   -1.6287   59.7286 C.2     1  ZINC000347662449    0.5300
     24 O24        -8.2858   -1.6040   59.3593 O.2     1  ZINC000347662449   -0.4900
     25 H25        -8.2782    0.2836   64.1700 H       1  ZINC000347662449    0.1000
     26 H26        -9.9348    0.7087   64.9277 H       1  ZINC000347662449    0.1000
     27 H27       -10.9918    0.3602   62.8128 H       1  ZINC000347662449    0.1100
     28 H28        -8.7684    0.7186   61.1862 H       1  ZINC000347662449    0.0900
     29 H29        -8.2338   -0.7453   62.0460 H       1  ZINC000347662449    0.0900
     30 H30       -11.5217   -1.9833   61.7647 H       1  ZINC000347662449    0.0800
     31 H31       -11.8621   -0.3073   61.2398 H       1  ZINC000347662449    0.0900
     32 H32       -12.6169   -2.5262   59.7548 H       1  ZINC000347662449    0.1100
     33 H33       -12.2106   -0.9498   58.9976 H       1  ZINC000347662449    0.0900
     34 H34       -13.7131   -5.7343   56.9368 H       1  ZINC000347662449    0.1800
     35 H35       -14.1815   -4.2675   54.8190 H       1  ZINC000347662449    0.1800
     36 H36       -11.6655   -3.2636   53.1213 H       1  ZINC000347662449    0.1300
     37 H37       -11.4866   -1.4461   51.4711 H       1  ZINC000347662449    0.1300
     38 H38       -13.0584    1.2281   51.2291 H       1  ZINC000347662449    0.0800
     39 H39       -11.9409    2.0993   52.3063 H       1  ZINC000347662449    0.0700
     40 H40       -11.3051    0.9453   51.1095 H       1  ZINC000347662449    0.0700
     41 H41       -14.1833    1.8586   54.2125 H       1  ZINC000347662449    0.0800
     42 H42       -12.9640    1.8745   55.5092 H       1  ZINC000347662449    0.0700
     43 H43       -12.5320    2.4308   53.8745 H       1  ZINC000347662449    0.0800
     44 H44       -13.1992   -0.4927   55.9935 H       1  ZINC000347662449    0.1300
@<TRIPOS>BOND
     1     1     2    2
     2     1    25    1
     3     1    26    1
     4     2     3    1
     5     2    27    1
     6     3     4    1
     7     3    28    1
     8     3    29    1
     9     4    23   am
    10     4     5    1
    11     5     6    1
    12     5    30    1
    13     5    31    1
    14     6     7    1
    15     6    32    1
    16     6    33    1
    17     7     8    1
    18     7     9    1
    19     7    23    1
    20     9    10    1
    21    10    14    1
    22    10    11    2
    23    11    12    1
    24    12    13    2
    25    12    34    1
    26    13    14    1
    27    13    35    1
    28    14    15    1
    29    15    22   ar
    30    15    16   ar
    31    16    17   ar
    32    16    36    1
    33    17    18   ar
    34    17    37    1
    35    18    19    1
    36    18    20   ar
    37    19    38    1
    38    19    39    1
    39    19    40    1
    40    20    21    1
    41    20    22   ar
    42    21    41    1
    43    21    42    1
    44    21    43    1
    45    22    44    1
    46    23    24    2
@<TRIPOS>SUBSTRUCTURE
     1 ZINC000347662449        1 TEMP              0 ****  ****    0 ROOT


##########                                Name:    ZINC001176298561
##########                DOCK_Rotatable_Bonds:                   6
##########                         Heavy_Atoms:                  23
##########                    Molecular_Weight:             337.781
##########                DOCK_Rotatable_Bonds:                   6
##########                       Formal_Charge:          -0.0100003
##########                     HBond_Acceptors:                   7
##########                        HBond_Donors:                   2
##########                         Heavy_Atoms:                  23
##########                          Grid_Score:          -25.496439
##########                     Grid_vdw_energy:          -20.978491
##########                      Grid_es_energy:           -4.517948
##########           Internal_energy_repulsive:           11.667011

@<TRIPOS>MOLECULE
ZINC001176298561
 40 41 1 0 0
SMALL
USER_CHARGES


@<TRIPOS>ATOM
      1 C1          0.4335    3.4629   46.9379 C.3     1  ZINC001176298561   -0.1700
      2 C2         -0.0571    2.4782   48.0013 C.3     1  ZINC001176298561    0.1100
      3 N3         -0.7924    3.2060   49.0384 N.am    1  ZINC001176298561   -0.6100
      4 C4         -2.2154    3.5027   48.8561 C.3     1  ZINC001176298561    0.0900
      5 C5         -2.8978    2.3219   48.1625 C.3     1  ZINC001176298561   -0.1800
      6 C6         -0.1598    3.6026   50.1604 C.2     1  ZINC001176298561    0.5600
      7 O7          1.0209    3.3564   50.3118 O.2     1  ZINC001176298561   -0.5300
      8 C8         -0.9020    4.3373   51.2074 C.ar    1  ZINC001176298561   -0.0600
      9 C9         -0.8789    5.7325   51.2331 C.ar    1  ZINC001176298561   -0.1900
     10 C10        -1.5736    6.4171   52.2132 C.ar    1  ZINC001176298561    0.1400
     11 F11        -1.5506    7.7677   52.2364 F       1  ZINC001176298561   -0.1300
     12 C12        -2.2930    5.7225   53.1700 C.ar    1  ZINC001176298561   -0.1800
     13 C13        -2.3211    4.3328   53.1513 C.ar    1  ZINC001176298561    0.2400
     14 N14        -3.0488    3.6360   54.1187 N.pl3   1  ZINC001176298561   -0.6700
     15 C15        -2.5629    3.5439   55.4285 C.2     1  ZINC001176298561    0.0400
     16 C16        -1.3010    3.0718   55.6670 C.2     1  ZINC001176298561   -0.0300
     17 C17        -0.8384    2.9901   56.9890 C.2     1  ZINC001176298561   -0.1300
     18 Cl18        0.7594    2.3941   57.3138 Cl      1  ZINC001176298561   -0.0400
     19 C19        -1.6370    3.3761   58.0110 C.2     1  ZINC001176298561    0.1400
     20 N20        -2.8923    3.8458   57.7752 N.am    1  ZINC001176298561   -0.6000
     21 C21        -3.3672    3.9425   56.5187 C.2     1  ZINC001176298561    0.5100
     22 O22        -4.4952    4.3661   56.3230 O.2     1  ZINC001176298561   -0.5200
     23 C23        -1.6318    3.6381   52.1685 C.ar    1  ZINC001176298561   -0.1300
     24 H24         0.9806    2.9214   46.1661 H       1  ZINC001176298561    0.0700
     25 H25        -0.4213    3.9693   46.4897 H       1  ZINC001176298561    0.0600
     26 H26         1.0907    4.1994   47.4002 H       1  ZINC001176298561    0.0600
     27 H27        -0.7143    1.7418   47.5389 H       1  ZINC001176298561    0.0800
     28 H28         0.7978    1.9718   48.4494 H       1  ZINC001176298561    0.0900
     29 H29        -2.6791    3.6705   49.8281 H       1  ZINC001176298561    0.0900
     30 H30        -2.3244    4.3969   48.2424 H       1  ZINC001176298561    0.0800
     31 H31        -2.5031    1.3880   48.5627 H       1  ZINC001176298561    0.0700
     32 H32        -3.9723    2.3679   48.3399 H       1  ZINC001176298561    0.0700
     33 H33        -2.7042    2.3686   47.0909 H       1  ZINC001176298561    0.0600
     34 H34        -0.3181    6.2772   50.4880 H       1  ZINC001176298561    0.1500
     35 H35        -2.8338    6.2618   53.9337 H       1  ZINC001176298561    0.1300
     36 H36        -3.8908    3.2160   53.8831 H       1  ZINC001176298561    0.4200
     37 H37        -0.6684    2.7653   54.8471 H       1  ZINC001176298561    0.1500
     38 H38        -1.2739    3.3104   59.0260 H       1  ZINC001176298561    0.1800
     39 H39        -3.4503    4.1175   58.5208 H       1  ZINC001176298561    0.4300
     40 H40        -1.6528    2.5584   52.1528 H       1  ZINC001176298561    0.1400
@<TRIPOS>BOND
     1     1     2    1
     2     1    24    1
     3     1    25    1
     4     1    26    1
     5     2     3    1
     6     2    27    1
     7     2    28    1
     8     3     4    1
     9     3     6   am
    10     4     5    1
    11     4    29    1
    12     4    30    1
    13     5    31    1
    14     5    32    1
    15     5    33    1
    16     6     7    2
    17     6     8    1
    18     8    23   ar
    19     8     9   ar
    20     9    10   ar
    21     9    34    1
    22    10    11    1
    23    10    12   ar
    24    12    13   ar
    25    12    35    1
    26    13    14    1
    27    13    23   ar
    28    14    15    1
    29    14    36    1
    30    15    21    1
    31    15    16    2
    32    16    17    1
    33    16    37    1
    34    17    18    1
    35    17    19    2
    36    19    20    1
    37    19    38    1
    38    20    21   am
    39    20    39    1
    40    21    22    2
    41    23    40    1
@<TRIPOS>SUBSTRUCTURE
     1 ZINC001176298561        1 TEMP              0 ****  ****    0 ROOT


##########                                Name:    ZINC000481050680
##########                DOCK_Rotatable_Bonds:                   7
##########                         Heavy_Atoms:                  29
##########                    Molecular_Weight:              412.46
##########                DOCK_Rotatable_Bonds:                   7
##########                       Formal_Charge:          -0.0199997
##########                     HBond_Acceptors:                   7
##########                        HBond_Donors:                   1
##########                         Heavy_Atoms:                  29
##########                          Grid_Score:          -25.444374
##########                     Grid_vdw_energy:          -25.844435
##########                      Grid_es_energy:            0.400061
##########           Internal_energy_repulsive:           14.792030

@<TRIPOS>MOLECULE
ZINC000481050680
 47 49 1 0 0
SMALL
USER_CHARGES


@<TRIPOS>ATOM
      1 N1         -0.4238    2.4524   46.1014 N.1     1  ZINC000481050680   -0.3900
      2 C2         -0.8822    2.5840   47.1323 C.1     1  ZINC000481050680    0.2500
      3 C3         -1.4602    2.7500   48.4319 C.ar    1  ZINC000481050680    0.0200
      4 C4         -0.7030    3.2929   49.4717 C.ar    1  ZINC000481050680   -0.0800
      5 C5         -1.2651    3.4511   50.7218 C.ar    1  ZINC000481050680   -0.0800
      6 C6         -2.5761    3.0733   50.9476 C.ar    1  ZINC000481050680   -0.1000
      7 C7         -3.1827    3.2493   52.3158 C.3     1  ZINC000481050680   -0.5900
      8 S8         -3.2467    5.0151   52.7263 S.o2    1  ZINC000481050680    2.6000
      9 O9         -2.7289    5.7947   51.6571 O.2     1  ZINC000481050680   -0.9300
     10 O10        -4.4883    5.3406   53.3361 O.2     1  ZINC000481050680   -0.9400
     11 N11        -2.1353    5.1976   53.9404 N.am    1  ZINC000481050680   -1.1100
     12 C12        -2.2923    4.4570   55.1946 C.3     1  ZINC000481050680    0.2100
     13 H13        -3.0847    3.7170   55.0828 H       1  ZINC000481050680    0.1000
     14 C14        -2.6571    5.4290   56.3185 C.3     1  ZINC000481050680   -0.0800
     15 C15        -4.1558    5.4880   56.4649 C.ar    1  ZINC000481050680   -0.0900
     16 C16        -4.8732    4.3303   56.7014 C.ar    1  ZINC000481050680   -0.1200
     17 C17        -6.2480    4.3843   56.8355 C.ar    1  ZINC000481050680   -0.1200
     18 C18        -6.9052    5.5961   56.7336 C.ar    1  ZINC000481050680   -0.1200
     19 C19        -6.1877    6.7539   56.4978 C.ar    1  ZINC000481050680   -0.1200
     20 C20        -4.8125    6.7005   56.3680 C.ar    1  ZINC000481050680   -0.1200
     21 C21        -0.9990    3.7611   55.5323 C.ar    1  ZINC000481050680   -0.1300
     22 C22         0.1637    4.1032   54.8687 C.ar    1  ZINC000481050680   -0.0700
     23 C23         1.3505    3.4647   55.1783 C.ar    1  ZINC000481050680   -0.1300
     24 C24         1.3751    2.4836   56.1515 C.ar    1  ZINC000481050680   -0.0900
     25 C25         0.2132    2.1394   56.8163 C.ar    1  ZINC000481050680   -0.1500
     26 C26        -0.9743    2.7825   56.5118 C.ar    1  ZINC000481050680    0.1100
     27 F27        -2.1105    2.4469   57.1610 F       1  ZINC000481050680   -0.1400
     28 C28        -3.3347    2.5340   49.9206 C.ar    1  ZINC000481050680    0.1200
     29 F29        -4.6150    2.1676   50.1483 F       1  ZINC000481050680   -0.1200
     30 C30        -2.7851    2.3749   48.6631 C.ar    1  ZINC000481050680   -0.1000
     31 H31         0.3212    3.5885   49.2979 H       1  ZINC000481050680    0.1500
     32 H32        -0.6794    3.8708   51.5264 H       1  ZINC000481050680    0.1500
     33 H33        -4.1922    2.8382   52.3213 H       1  ZINC000481050680    0.1500
     34 H34        -2.5736    2.7267   53.0533 H       1  ZINC000481050680    0.1500
     35 H35        -1.3803    5.7948   53.8210 H       1  ZINC000481050680    0.4200
     36 H36        -2.2140    5.0860   57.2535 H       1  ZINC000481050680    0.0900
     37 H37        -2.2760    6.4215   56.0784 H       1  ZINC000481050680    0.0900
     38 H38        -4.3597    3.3835   56.7811 H       1  ZINC000481050680    0.1200
     39 H39        -6.8086    3.4798   57.0197 H       1  ZINC000481050680    0.1200
     40 H40        -7.9794    5.6382   56.8377 H       1  ZINC000481050680    0.1200
     41 H41        -6.7013    7.7007   56.4179 H       1  ZINC000481050680    0.1200
     42 H42        -4.2520    7.6050   56.1839 H       1  ZINC000481050680    0.1200
     43 H43         0.1454    4.8692   54.1076 H       1  ZINC000481050680    0.1300
     44 H44         2.2587    3.7328   54.6591 H       1  ZINC000481050680    0.1300
     45 H45         2.3027    1.9853   56.3923 H       1  ZINC000481050680    0.1300
     46 H46         0.2327    1.3721   57.5763 H       1  ZINC000481050680    0.1400
     47 H47        -3.3764    1.9549   47.8628 H       1  ZINC000481050680    0.1600
@<TRIPOS>BOND
     1     1     2    3
     2     2     3    1
     3     3    30   ar
     4     3     4   ar
     5     4     5   ar
     6     4    31    1
     7     5     6   ar
     8     5    32    1
     9     6     7    1
    10     6    28   ar
    11     7     8    1
    12     7    33    1
    13     7    34    1
    14     8     9    2
    15     8    10    2
    16     8    11   am
    17    11    12    1
    18    11    35    1
    19    12    13    1
    20    12    14    1
    21    12    21    1
    22    14    15    1
    23    14    36    1
    24    14    37    1
    25    15    20   ar
    26    15    16   ar
    27    16    17   ar
    28    16    38    1
    29    17    18   ar
    30    17    39    1
    31    18    19   ar
    32    18    40    1
    33    19    20   ar
    34    19    41    1
    35    20    42    1
    36    21    26   ar
    37    21    22   ar
    38    22    23   ar
    39    22    43    1
    40    23    24   ar
    41    23    44    1
    42    24    25   ar
    43    24    45    1
    44    25    26   ar
    45    25    46    1
    46    26    27    1
    47    28    29    1
    48    28    30   ar
    49    30    47    1
@<TRIPOS>SUBSTRUCTURE
     1 ZINC000481050680        1 TEMP              0 ****  ****    0 ROOT


##########                                Name:    ZINC000742270208
##########                DOCK_Rotatable_Bonds:                   5
##########                         Heavy_Atoms:                  25
##########                    Molecular_Weight:             376.328
##########                DOCK_Rotatable_Bonds:                   5
##########                       Formal_Charge:                0.02
##########                     HBond_Acceptors:                   9
##########                        HBond_Donors:                   0
##########                         Heavy_Atoms:                  25
##########                          Grid_Score:          -25.443720
##########                     Grid_vdw_energy:          -25.134468
##########                      Grid_es_energy:           -0.309251
##########           Internal_energy_repulsive:           10.545650

@<TRIPOS>MOLECULE
ZINC000742270208
 37 38 1 0 0
SMALL
USER_CHARGES


@<TRIPOS>ATOM
      1 C1        -11.8876   -1.2330   54.9105 C.3     1  ZINC000742270208   -0.1400
      2 C2        -10.7807   -0.9303   53.8984 C.3     1  ZINC000742270208   -0.1400
      3 C3        -11.4076   -0.5262   52.5626 C.3     1  ZINC000742270208   -0.1400
      4 C4         -9.9242    0.1977   54.4131 C.2     1  ZINC000742270208    0.4000
      5 O5        -10.0620    0.5931   55.5511 O.2     1  ZINC000742270208   -0.4300
      6 C6         -8.9205    0.8194   53.5346 C.ar    1  ZINC000742270208   -0.1000
      7 C7         -8.7685    2.2095   53.5145 C.ar    1  ZINC000742270208   -0.0900
      8 C8         -7.8258    2.7845   52.6885 C.ar    1  ZINC000742270208   -0.0200
      9 C9         -7.0314    1.9897   51.8806 C.ar    1  ZINC000742270208   -0.6800
     10 S10        -5.8297    2.7341   50.8288 S.o2    1  ZINC000742270208    2.6600
     11 O11        -6.0735    2.2314   49.5223 O.2     1  ZINC000742270208   -0.9300
     12 O12        -5.8275    4.1205   51.1404 O.2     1  ZINC000742270208   -0.9000
     13 O13        -4.4689    2.1970   51.2488 O.3     1  ZINC000742270208   -0.6400
     14 C14        -3.4227    2.9716   50.8545 C.ar    1  ZINC000742270208    0.0500
     15 C15        -2.8263    3.8444   51.7540 C.ar    1  ZINC000742270208    0.0900
     16 F16        -3.2846    3.9254   53.0223 F       1  ZINC000742270208   -0.0900
     17 C17        -1.7605    4.6321   51.3503 C.ar    1  ZINC000742270208    0.1100
     18 F18        -1.1798    5.4819   52.2255 F       1  ZINC000742270208   -0.1000
     19 C19        -1.2900    4.5488   50.0511 C.ar    1  ZINC000742270208   -0.1100
     20 C20        -1.8837    3.6791   49.1524 C.ar    1  ZINC000742270208    0.1200
     21 F21        -1.4227    3.5996   47.8849 F       1  ZINC000742270208   -0.1000
     22 C22        -2.9463    2.8859   49.5535 C.ar    1  ZINC000742270208    0.1200
     23 F23        -3.5251    2.0371   48.6762 F       1  ZINC000742270208   -0.0900
     24 C24        -7.1756    0.6133   51.8949 C.ar    1  ZINC000742270208   -0.0300
     25 C25        -8.1096    0.0228   52.7199 C.ar    1  ZINC000742270208   -0.0800
     26 H26       -12.5071   -2.0489   54.5383 H       1  ZINC000742270208    0.0700
     27 H27       -11.4409   -1.5208   55.8622 H       1  ZINC000742270208    0.0600
     28 H28       -12.5032   -0.3447   55.0521 H       1  ZINC000742270208    0.0600
     29 H29       -10.1650   -1.8186   53.7569 H       1  ZINC000742270208    0.1000
     30 H30       -12.0233    0.3621   52.7042 H       1  ZINC000742270208    0.0700
     31 H31       -10.6191   -0.3105   51.8416 H       1  ZINC000742270208    0.0600
     32 H32       -12.0272   -1.3421   52.1903 H       1  ZINC000742270208    0.0700
     33 H33        -9.3883    2.8310   54.1438 H       1  ZINC000742270208    0.1500
     34 H34        -7.7074    3.8578   52.6718 H       1  ZINC000742270208    0.1500
     35 H35        -0.4587    5.1632   49.7381 H       1  ZINC000742270208    0.1900
     36 H36        -6.5520   -0.0002   51.2616 H       1  ZINC000742270208    0.1500
     37 H37        -8.2209   -1.0514   52.7299 H       1  ZINC000742270208    0.1500
@<TRIPOS>BOND
     1     1     2    1
     2     1    26    1
     3     1    27    1
     4     1    28    1
     5     2     3    1
     6     2     4    1
     7     2    29    1
     8     3    30    1
     9     3    31    1
    10     3    32    1
    11     4     5    2
    12     4     6    1
    13     6    25   ar
    14     6     7   ar
    15     7     8   ar
    16     7    33    1
    17     8     9   ar
    18     8    34    1
    19     9    10    1
    20     9    24   ar
    21    10    11    2
    22    10    12    2
    23    10    13    1
    24    13    14    1
    25    14    22   ar
    26    14    15   ar
    27    15    16    1
    28    15    17   ar
    29    17    18    1
    30    17    19   ar
    31    19    20   ar
    32    19    35    1
    33    20    21    1
    34    20    22   ar
    35    22    23    1
    36    24    25   ar
    37    24    36    1
    38    25    37    1
@<TRIPOS>SUBSTRUCTURE
     1 ZINC000742270208        1 TEMP              0 ****  ****    0 ROOT


##########                                Name:    ZINC000888733009
##########                DOCK_Rotatable_Bonds:                   6
##########                         Heavy_Atoms:                  25
##########                    Molecular_Weight:             360.434
##########                DOCK_Rotatable_Bonds:                   6
##########                       Formal_Charge:        -1.02073e-06
##########                     HBond_Acceptors:                   7
##########                        HBond_Donors:                   2
##########                         Heavy_Atoms:                  25
##########                          Grid_Score:          -25.425915
##########                     Grid_vdw_energy:          -23.061478
##########                      Grid_es_energy:           -2.364437
##########           Internal_energy_repulsive:            5.908946

@<TRIPOS>MOLECULE
ZINC000888733009
 45 48 1 0 0
SMALL
USER_CHARGES


@<TRIPOS>ATOM
      1 C1         -1.1399    2.1780   46.3680 C.3     1  ZINC000888733009   -0.1500
      2 C2         -0.4388    3.0429   47.4176 C.3     1  ZINC000888733009    0.0700
      3 H3          0.6046    3.1989   47.1437 H       1  ZINC000888733009    0.0700
      4 C4         -0.5360    2.3808   48.8130 C.3     1  ZINC000888733009   -0.1300
      5 C5         -0.7270    3.5694   49.7647 C.3     1  ZINC000888733009   -0.1100
      6 C6         -1.8897    3.4545   50.7472 C.3     1  ZINC000888733009   -0.1300
      7 C7         -0.9779    4.1548   51.7716 C.3     1  ZINC000888733009    0.1200
      8 N8         -1.0704    3.5906   53.1204 N.am    1  ZINC000888733009   -0.7100
      9 C9         -1.7347    4.2569   54.0855 C.2     1  ZINC000888733009    0.5900
     10 O10        -2.2590    5.3266   53.8360 O.2     1  ZINC000888733009   -0.5600
     11 C11        -1.8257    3.6932   55.4356 C.2     1  ZINC000888733009   -0.2400
     12 C12        -0.7862    3.0568   56.0639 C.2     1  ZINC000888733009    0.0800
     13 N13         0.4698    2.8663   55.5121 N.am    1  ZINC000888733009   -0.6100
     14 C14         1.5523    3.4203   56.0932 C.2     1  ZINC000888733009    0.6000
     15 O15         1.4264    4.0867   57.1038 O.2     1  ZINC000888733009   -0.4900
     16 C16         2.8814    3.2202   55.5082 C.2     1  ZINC000888733009   -0.0900
     17 C17         4.0598    3.6919   56.0128 C.2     1  ZINC000888733009   -0.1000
     18 C18         5.0719    3.2673   55.1380 C.2     1  ZINC000888733009   -0.2300
     19 C19         4.4750    2.5641   54.1503 C.2     1  ZINC000888733009    0.0100
     20 O20         3.1558    2.5330   54.3800 O.3     1  ZINC000888733009   -0.1600
     21 S21        -1.2519    2.5328   57.6175 S.3     1  ZINC000888733009    0.3000
     22 C22        -2.8743    3.1751   57.4329 C.2     1  ZINC000888733009   -0.2800
     23 C23        -3.0198    3.7541   56.2497 C.2     1  ZINC000888733009   -0.0900
     24 C24         0.2186    3.6220   50.9619 C.3     1  ZINC000888733009   -0.1400
     25 C25        -0.7341    4.8105   48.8624 C.3     1  ZINC000888733009    0.0700
     26 O26        -1.1169    4.3113   47.5583 O.3     1  ZINC000888733009   -0.3700
     27 H27        -1.0862    2.6702   45.3970 H       1  ZINC000888733009    0.0600
     28 H28        -0.6488    1.2067   46.3108 H       1  ZINC000888733009    0.0700
     29 H29        -2.1842    2.0412   46.6488 H       1  ZINC000888733009    0.0600
     30 H30        -1.3941    1.7102   48.8602 H       1  ZINC000888733009    0.0800
     31 H31         0.3838    1.8453   49.0481 H       1  ZINC000888733009    0.0800
     32 H32        -2.7622    4.0431   50.4636 H       1  ZINC000888733009    0.0800
     33 H33        -2.1382    2.4270   51.0128 H       1  ZINC000888733009    0.0900
     34 H34        -1.0641    5.2413   51.7609 H       1  ZINC000888733009    0.1200
     35 H35        -0.6536    2.7376   53.3190 H       1  ZINC000888733009    0.4000
     36 H36         0.5703    2.3342   54.7073 H       1  ZINC000888733009    0.4400
     37 H37         4.1879    4.2781   56.9106 H       1  ZINC000888733009    0.1700
     38 H38         6.1291    3.4655   55.2356 H       1  ZINC000888733009    0.1600
     39 H39         4.9791    2.0997   53.3157 H       1  ZINC000888733009    0.2200
     40 H40        -3.6481    3.1110   58.1836 H       1  ZINC000888733009    0.1700
     41 H41        -3.9393    4.2173   55.9233 H       1  ZINC000888733009    0.1500
     42 H42         0.5663    2.6419   51.2882 H       1  ZINC000888733009    0.0900
     43 H43         1.0273    4.3442   50.8494 H       1  ZINC000888733009    0.0800
     44 H44        -1.4629    5.5373   49.2210 H       1  ZINC000888733009    0.0900
     45 H45         0.2598    5.2560   48.8205 H       1  ZINC000888733009    0.0700
@<TRIPOS>BOND
     1     1     2    1
     2     1    27    1
     3     1    28    1
     4     1    29    1
     5     2     3    1
     6     2    26    1
     7     2     4    1
     8     4     5    1
     9     4    30    1
    10     4    31    1
    11     5    24    1
    12     5     6    1
    13     5    25    1
    14     6     7    1
    15     6    32    1
    16     6    33    1
    17     7     8    1
    18     7    24    1
    19     7    34    1
    20     8     9   am
    21     8    35    1
    22     9    10    2
    23     9    11    1
    24    11    23    1
    25    11    12    2
    26    12    13    1
    27    12    21    1
    28    13    14   am
    29    13    36    1
    30    14    15    2
    31    14    16    1
    32    16    20    1
    33    16    17    2
    34    17    18    1
    35    17    37    1
    36    18    19    2
    37    18    38    1
    38    19    20    1
    39    19    39    1
    40    21    22    1
    41    22    23    2
    42    22    40    1
    43    23    41    1
    44    24    42    1
    45    24    43    1
    46    25    26    1
    47    25    44    1
    48    25    45    1
@<TRIPOS>SUBSTRUCTURE
     1 ZINC000888733009        1 TEMP              0 ****  ****    0 ROOT


##########                                Name:    ZINC000371438955
##########                DOCK_Rotatable_Bonds:                   4
##########                         Heavy_Atoms:                  25
##########                    Molecular_Weight:             387.499
##########                DOCK_Rotatable_Bonds:                   4
##########                       Formal_Charge:          -0.0299995
##########                     HBond_Acceptors:                   9
##########                        HBond_Donors:                   1
##########                         Heavy_Atoms:                  25
##########                          Grid_Score:          -25.286766
##########                     Grid_vdw_energy:          -26.385094
##########                      Grid_es_energy:            1.098328
##########           Internal_energy_repulsive:           27.321312

@<TRIPOS>MOLECULE
ZINC000371438955
 47 49 1 0 0
SMALL
USER_CHARGES


@<TRIPOS>ATOM
      1 C1         -1.0360    2.8084   59.0672 C.3     1  ZINC000371438955   -0.6800
      2 S2         -1.4519    2.7955   57.3016 S.o2    1  ZINC000371438955    2.6000
      3 O3         -1.1332    1.5371   56.7234 O.2     1  ZINC000371438955   -0.9500
      4 O4         -2.7180    3.4026   57.0831 O.2     1  ZINC000371438955   -0.9500
      5 N5         -0.3714    3.8458   56.6148 N.am    1  ZINC000371438955   -0.9900
      6 C6         -0.3607    5.2132   57.0489 C.3     1  ZINC000371438955    0.1300
      7 C7         -1.4050    5.9815   56.2218 C.3     1  ZINC000371438955   -0.1700
      8 C8         -0.9064    6.3062   54.8761 C.3     1  ZINC000371438955    0.1400
      9 N9         -0.5292    5.0683   54.1538 N.am    1  ZINC000371438955   -0.6200
     10 C10        -1.3498    4.5615   53.2123 C.2     1  ZINC000371438955    0.7100
     11 O11        -1.0408    3.5460   52.6193 O.2     1  ZINC000371438955   -0.5800
     12 N12        -2.5128    5.1805   52.9281 N.am    1  ZINC000371438955   -0.7400
     13 C13        -3.4048    4.6297   51.9047 C.3     1  ZINC000371438955    0.2000
     14 H14        -4.2231    5.3311   51.7422 H       1  ZINC000371438955    0.1100
     15 C15        -3.9809    3.3206   52.4156 C.3     1  ZINC000371438955   -0.1300
     16 C16        -4.9485    2.7574   51.3651 C.3     1  ZINC000371438955   -0.1100
     17 S17        -3.9462    2.1426   49.9811 S.3     1  ZINC000371438955   -0.1000
     18 C18        -2.8072    3.4634   49.7129 C.ar    1  ZINC000371438955   -0.1100
     19 C19        -2.0626    3.4497   48.5301 C.ar    1  ZINC000371438955    0.1100
     20 F20        -2.2406    2.4505   47.6384 F       1  ZINC000371438955   -0.1300
     21 C21        -1.1480    4.4477   48.2647 C.ar    1  ZINC000371438955   -0.1300
     22 C22        -0.9674    5.4671   49.1822 C.ar    1  ZINC000371438955   -0.1000
     23 C23        -1.7023    5.4841   50.3474 C.ar    1  ZINC000371438955   -0.1000
     24 C24        -2.6353    4.4844   50.6247 C.ar    1  ZINC000371438955   -0.0800
     25 C25         0.7102    4.4084   54.4558 C.3     1  ZINC000371438955    0.1000
     26 C26         0.5617    3.3394   55.5714 C.3     1  ZINC000371438955    0.0900
     27 H27        -0.0060    2.4774   59.2002 H       1  ZINC000371438955    0.1300
     28 H28        -1.1462    3.8195   59.4591 H       1  ZINC000371438955    0.1300
     29 H29        -1.7058    2.1360   59.6032 H       1  ZINC000371438955    0.1300
     30 H30        -0.6171    5.2659   58.1070 H       1  ZINC000371438955    0.0800
     31 H31         0.6274    5.6437   56.8866 H       1  ZINC000371438955    0.0800
     32 H32        -2.3038    5.3717   56.1298 H       1  ZINC000371438955    0.0800
     33 H33        -1.6572    6.9070   56.7398 H       1  ZINC000371438955    0.0900
     34 H34        -1.6855    6.8261   54.3185 H       1  ZINC000371438955    0.0900
     35 H35        -0.0341    6.9542   54.9612 H       1  ZINC000371438955    0.0700
     36 H36        -2.7592    5.9906   53.4011 H       1  ZINC000371438955    0.4000
     37 H37        -3.1734    2.6087   52.5865 H       1  ZINC000371438955    0.0900
     38 H38        -4.5170    3.4971   53.3480 H       1  ZINC000371438955    0.1000
     39 H39        -5.5279    1.9404   51.7950 H       1  ZINC000371438955    0.1200
     40 H40        -5.6175    3.5447   51.0174 H       1  ZINC000371438955    0.1000
     41 H41        -0.5773    4.4331   47.3481 H       1  ZINC000371438955    0.1400
     42 H42        -0.2497    6.2497   48.9851 H       1  ZINC000371438955    0.1300
     43 H43        -1.5526    6.2834   51.0581 H       1  ZINC000371438955    0.1400
     44 H44         1.0822    3.9259   53.5520 H       1  ZINC000371438955    0.0800
     45 H45         1.4365    5.1536   54.7800 H       1  ZINC000371438955    0.0900
     46 H46         1.5371    3.1385   56.0144 H       1  ZINC000371438955    0.0800
     47 H47         0.1605    2.4207   55.1433 H       1  ZINC000371438955    0.1000
@<TRIPOS>BOND
     1     1     2    1
     2     1    27    1
     3     1    28    1
     4     1    29    1
     5     2     3    2
     6     2     4    2
     7     2     5   am
     8     5    26    1
     9     5     6    1
    10     6     7    1
    11     6    30    1
    12     6    31    1
    13     7     8    1
    14     7    32    1
    15     7    33    1
    16     8     9    1
    17     8    34    1
    18     8    35    1
    19     9    10   am
    20     9    25    1
    21    10    11    2
    22    10    12   am
    23    12    13    1
    24    12    36    1
    25    13    14    1
    26    13    24    1
    27    13    15    1
    28    15    16    1
    29    15    37    1
    30    15    38    1
    31    16    17    1
    32    16    39    1
    33    16    40    1
    34    17    18    1
    35    18    24   ar
    36    18    19   ar
    37    19    20    1
    38    19    21   ar
    39    21    22   ar
    40    21    41    1
    41    22    23   ar
    42    22    42    1
    43    23    24   ar
    44    23    43    1
    45    25    26    1
    46    25    44    1
    47    25    45    1
    48    26    46    1
    49    26    47    1
@<TRIPOS>SUBSTRUCTURE
     1 ZINC000371438955        1 TEMP              0 ****  ****    0 ROOT


##########                                Name:    ZINC000966038509
##########                DOCK_Rotatable_Bonds:                   5
##########                         Heavy_Atoms:                  25
##########                    Molecular_Weight:             346.445
##########                DOCK_Rotatable_Bonds:                   5
##########                       Formal_Charge:           0.0299998
##########                     HBond_Acceptors:                   5
##########                        HBond_Donors:                   1
##########                         Heavy_Atoms:                  25
##########                          Grid_Score:          -25.268940
##########                     Grid_vdw_energy:          -23.871584
##########                      Grid_es_energy:           -1.397357
##########           Internal_energy_repulsive:           18.121840

@<TRIPOS>MOLECULE
ZINC000966038509
 52 54 1 0 0
SMALL
USER_CHARGES


@<TRIPOS>ATOM
      1 C1         -1.3861    3.1332   48.5430 C.3     1  ZINC000966038509   -0.1200
      2 C2         -2.3297    2.9420   49.7023 C.ar    1  ZINC000966038509   -0.0100
      3 C3         -3.5111    2.2546   49.5249 C.ar    1  ZINC000966038509   -0.1600
      4 C4         -4.3804    2.0785   50.5906 C.ar    1  ZINC000966038509    0.1300
      5 F5         -5.5374    1.4043   50.4111 F       1  ZINC000966038509   -0.1300
      6 C6         -4.0665    2.5913   51.8399 C.ar    1  ZINC000966038509   -0.1600
      7 C7         -2.8876    3.2803   52.0285 C.ar    1  ZINC000966038509   -0.0100
      8 C8         -2.5480    3.8376   53.3868 C.3     1  ZINC000966038509   -0.1200
      9 C9         -2.0060    3.4561   50.9598 C.ar    1  ZINC000966038509   -0.1500
     10 C10        -0.7412    4.1936   51.1559 C.2     1  ZINC000966038509    0.5700
     11 O11        -0.6499    5.3507   50.7941 O.2     1  ZINC000966038509   -0.5200
     12 N12         0.3116    3.5838   51.7358 N.am    1  ZINC000966038509   -0.7100
     13 C13         1.5653    4.3159   51.9318 C.3     1  ZINC000966038509    0.1300
     14 H14         1.5115    5.3067   51.4807 H       1  ZINC000966038509    0.1200
     15 C15         1.9245    4.4093   53.4358 C.3     1  ZINC000966038509    0.0900
     16 N16         2.5481    3.1123   53.7561 N.am    1  ZINC000966038509   -0.6200
     17 C17         2.6060    2.5494   54.9793 C.2     1  ZINC000966038509    0.5400
     18 O18         3.1458    1.4735   55.1268 O.2     1  ZINC000966038509   -0.5300
     19 C19         1.9998    3.2570   56.1637 C.3     1  ZINC000966038509   -0.1100
     20 C20         0.5308    2.8104   56.3685 C.3     1  ZINC000966038509   -0.1100
     21 C21         0.2872    3.1133   57.8678 C.3     1  ZINC000966038509   -0.1200
     22 C22         1.6202    2.7421   58.5501 C.3     1  ZINC000966038509   -0.1200
     23 C23         2.7090    2.8335   57.4667 C.3     1  ZINC000966038509   -0.1100
     24 C24         3.0958    2.5346   52.5201 C.3     1  ZINC000966038509    0.1000
     25 C25         2.7705    3.5147   51.3720 C.3     1  ZINC000966038509   -0.1100
     26 H26         3.6157    4.1749   51.1773 H       1  ZINC000966038509    0.1000
     27 C27         2.3780    2.7528   50.1046 C.3     1  ZINC000966038509   -0.1400
     28 H28        -0.6867    2.2981   48.5022 H       1  ZINC000966038509    0.0800
     29 H29        -1.9554    3.1760   47.6144 H       1  ZINC000966038509    0.0800
     30 H30        -0.8337    4.0637   48.6737 H       1  ZINC000966038509    0.0700
     31 H31        -3.7604    1.8528   48.5539 H       1  ZINC000966038509    0.1400
     32 H32        -4.7469    2.4510   52.6668 H       1  ZINC000966038509    0.1400
     33 H33        -1.9912    3.0933   53.9560 H       1  ZINC000966038509    0.0800
     34 H34        -1.9402    4.7349   53.2698 H       1  ZINC000966038509    0.0700
     35 H35        -3.4669    4.0879   53.9170 H       1  ZINC000966038509    0.0800
     36 H36         0.2392    2.6603   52.0233 H       1  ZINC000966038509    0.4000
     37 H37         2.6299    5.2222   53.6076 H       1  ZINC000966038509    0.0800
     38 H38         1.0240    4.5548   54.0325 H       1  ZINC000966038509    0.0800
     39 H39         2.0572    4.3375   56.0319 H       1  ZINC000966038509    0.0900
     40 H40        -0.1419    3.3959   55.7418 H       1  ZINC000966038509    0.0700
     41 H41         0.4192    1.7451   56.1664 H       1  ZINC000966038509    0.0700
     42 H42         0.0662    4.1708   58.0124 H       1  ZINC000966038509    0.0700
     43 H43        -0.5240    2.4966   58.2547 H       1  ZINC000966038509    0.0700
     44 H44         1.8353    3.4440   59.3558 H       1  ZINC000966038509    0.0700
     45 H45         1.5685    1.7266   58.9429 H       1  ZINC000966038509    0.0700
     46 H46         3.1857    1.8624   57.3335 H       1  ZINC000966038509    0.0800
     47 H47         3.4525    3.5798   57.7465 H       1  ZINC000966038509    0.0700
     48 H48         4.1755    2.4173   52.6125 H       1  ZINC000966038509    0.0800
     49 H49         2.6312    1.5681   52.3251 H       1  ZINC000966038509    0.0700
     50 H50         1.5137    2.1221   50.3129 H       1  ZINC000966038509    0.0600
     51 H51         2.1280    3.4631   49.3165 H       1  ZINC000966038509    0.0700
     52 H52         3.2125    2.1305   49.7817 H       1  ZINC000966038509    0.0700
@<TRIPOS>BOND
     1     1     2    1
     2     1    28    1
     3     1    29    1
     4     1    30    1
     5     2     9   ar
     6     2     3   ar
     7     3     4   ar
     8     3    31    1
     9     4     5    1
    10     4     6   ar
    11     6     7   ar
    12     6    32    1
    13     7     8    1
    14     7     9   ar
    15     8    33    1
    16     8    34    1
    17     8    35    1
    18     9    10    1
    19    10    11    2
    20    10    12   am
    21    12    13    1
    22    12    36    1
    23    13    14    1
    24    13    25    1
    25    13    15    1
    26    15    16    1
    27    15    37    1
    28    15    38    1
    29    16    17   am
    30    16    24    1
    31    17    18    2
    32    17    19    1
    33    19    23    1
    34    19    20    1
    35    19    39    1
    36    20    21    1
    37    20    40    1
    38    20    41    1
    39    21    22    1
    40    21    42    1
    41    21    43    1
    42    22    23    1
    43    22    44    1
    44    22    45    1
    45    23    46    1
    46    23    47    1
    47    24    25    1
    48    24    48    1
    49    24    49    1
    50    25    26    1
    51    25    27    1
    52    27    50    1
    53    27    51    1
    54    27    52    1
@<TRIPOS>SUBSTRUCTURE
     1 ZINC000966038509        1 TEMP              0 ****  ****    0 ROOT


##########                                Name:    ZINC000521663393
##########                DOCK_Rotatable_Bonds:                   5
##########                         Heavy_Atoms:                  27
##########                    Molecular_Weight:              386.49
##########                DOCK_Rotatable_Bonds:                   5
##########                       Formal_Charge:               -0.02
##########                     HBond_Acceptors:                   6
##########                        HBond_Donors:                   1
##########                         Heavy_Atoms:                  27
##########                          Grid_Score:          -25.197113
##########                     Grid_vdw_energy:          -23.735779
##########                      Grid_es_energy:           -1.461334
##########           Internal_energy_repulsive:           14.470350

@<TRIPOS>MOLECULE
ZINC000521663393
 50 53 1 0 0
SMALL
USER_CHARGES


@<TRIPOS>ATOM
      1 C1         -0.6507    3.8224   48.7278 C.3     1  ZINC000521663393   -0.1500
      2 C2         -1.4332    3.0899   49.8198 C.3     1  ZINC000521663393    0.0800
      3 H3         -0.8433    2.2714   50.2324 H       1  ZINC000521663393    0.0900
      4 O4         -2.6880    2.6071   49.3104 O.3     1  ZINC000521663393   -0.2900
      5 C5         -3.6238    2.6624   50.2974 C.ar    1  ZINC000521663393    0.1400
      6 C6         -4.8445    2.0023   50.4077 C.ar    1  ZINC000521663393   -0.1800
      7 C7         -5.6542    2.2164   51.5069 C.ar    1  ZINC000521663393    0.1400
      8 F8         -6.8376    1.5723   51.6060 F       1  ZINC000521663393   -0.1300
      9 C9         -5.2579    3.0880   52.5072 C.ar    1  ZINC000521663393   -0.1800
     10 C10        -4.0437    3.7434   52.4053 C.ar    1  ZINC000521663393   -0.0200
     11 C11        -3.2345    3.5283   51.3120 C.ar    1  ZINC000521663393   -0.2000
     12 C12        -1.8659    4.0705   50.9353 C.3     1  ZINC000521663393    0.1700
     13 H13        -1.9420    5.0880   50.5523 H       1  ZINC000521663393    0.1200
     14 N14        -0.9473    4.0102   52.0750 N.am    1  ZINC000521663393   -0.7200
     15 C15        -0.7178    5.1134   52.8146 C.2     1  ZINC000521663393    0.5300
     16 O16        -1.2729    6.1555   52.5375 O.2     1  ZINC000521663393   -0.5000
     17 C17         0.2285    5.0519   53.9857 C.3     1  ZINC000521663393    0.1200
     18 H18         0.6906    6.0283   54.1313 H       1  ZINC000521663393    0.0700
     19 C19        -0.5335    4.6666   55.2275 C.ar    1  ZINC000521663393   -0.0900
     20 C20        -0.9721    3.3662   55.3937 C.ar    1  ZINC000521663393   -0.0900
     21 C21        -1.6711    3.0128   56.5327 C.ar    1  ZINC000521663393   -0.1200
     22 C22        -1.9311    3.9596   57.5058 C.ar    1  ZINC000521663393   -0.1100
     23 C23        -1.4916    5.2597   57.3401 C.ar    1  ZINC000521663393   -0.1200
     24 C24        -0.7890    5.6121   56.2030 C.ar    1  ZINC000521663393   -0.1100
     25 N25         1.2711    4.0514   53.7210 N.3     1  ZINC000521663393   -0.5300
     26 C26         2.1420    3.8797   54.8860 C.3     1  ZINC000521663393    0.0500
     27 C27         2.9165    2.5627   54.7674 C.3     1  ZINC000521663393   -0.0700
     28 S28         3.9659    2.6416   53.2838 S.3     1  ZINC000521663393   -0.2700
     29 C29         2.7727    3.1440   52.0061 C.3     1  ZINC000521663393   -0.0700
     30 C30         2.0179    4.3810   52.5048 C.3     1  ZINC000521663393    0.0600
     31 H31         0.2626    4.2389   49.1526 H       1  ZINC000521663393    0.0800
     32 H32        -0.3952    3.1224   47.9324 H       1  ZINC000521663393    0.0800
     33 H33        -1.2622    4.6276   48.3207 H       1  ZINC000521663393    0.0700
     34 H34        -5.1599    1.3208   49.6315 H       1  ZINC000521663393    0.1400
     35 H35        -5.8943    3.2558   53.3635 H       1  ZINC000521663393    0.1400
     36 H36        -3.7305    4.4238   53.1833 H       1  ZINC000521663393    0.1300
     37 H37        -0.5042    3.1765   52.2973 H       1  ZINC000521663393    0.4000
     38 H38        -0.7690    2.6266   54.6335 H       1  ZINC000521663393    0.1300
     39 H39        -2.0145    1.9970   56.6622 H       1  ZINC000521663393    0.1300
     40 H40        -2.4778    3.6837   58.3954 H       1  ZINC000521663393    0.1200
     41 H41        -1.6951    5.9996   58.1001 H       1  ZINC000521663393    0.1300
     42 H42        -0.4456    6.6280   56.0734 H       1  ZINC000521663393    0.1200
     43 H43         2.8458    4.7104   54.9376 H       1  ZINC000521663393    0.0500
     44 H44         1.5360    3.8632   55.7919 H       1  ZINC000521663393    0.1000
     45 H45         3.5404    2.4240   55.6503 H       1  ZINC000521663393    0.1100
     46 H46         2.2157    1.7327   54.6766 H       1  ZINC000521663393    0.0900
     47 H47         3.3027    3.3851   51.0846 H       1  ZINC000521663393    0.1100
     48 H48         2.0673    2.3330   51.8247 H       1  ZINC000521663393    0.1000
     49 H49         1.3246    4.7174   51.7340 H       1  ZINC000521663393    0.0800
     50 H50         2.7303    5.1768   52.7219 H       1  ZINC000521663393    0.0500
@<TRIPOS>BOND
     1     1     2    1
     2     1    31    1
     3     1    32    1
     4     1    33    1
     5     2     3    1
     6     2    12    1
     7     2     4    1
     8     4     5    1
     9     5    11   ar
    10     5     6   ar
    11     6     7   ar
    12     6    34    1
    13     7     8    1
    14     7     9   ar
    15     9    10   ar
    16     9    35    1
    17    10    11   ar
    18    10    36    1
    19    11    12    1
    20    12    13    1
    21    12    14    1
    22    14    15   am
    23    14    37    1
    24    15    16    2
    25    15    17    1
    26    17    18    1
    27    17    19    1
    28    17    25    1
    29    19    24   ar
    30    19    20   ar
    31    20    21   ar
    32    20    38    1
    33    21    22   ar
    34    21    39    1
    35    22    23   ar
    36    22    40    1
    37    23    24   ar
    38    23    41    1
    39    24    42    1
    40    25    30    1
    41    25    26    1
    42    26    27    1
    43    26    43    1
    44    26    44    1
    45    27    28    1
    46    27    45    1
    47    27    46    1
    48    28    29    1
    49    29    30    1
    50    29    47    1
    51    29    48    1
    52    30    49    1
    53    30    50    1
@<TRIPOS>SUBSTRUCTURE
     1 ZINC000521663393        1 TEMP              0 ****  ****    0 ROOT


##########                                Name:    ZINC000341804698
##########                DOCK_Rotatable_Bonds:                   7
##########                         Heavy_Atoms:                  24
##########                    Molecular_Weight:             342.318
##########                DOCK_Rotatable_Bonds:                   7
##########                       Formal_Charge:                0.02
##########                     HBond_Acceptors:                   8
##########                        HBond_Donors:                   0
##########                         Heavy_Atoms:                  24
##########                          Grid_Score:          -25.192310
##########                     Grid_vdw_energy:          -25.674391
##########                      Grid_es_energy:            0.482080
##########           Internal_energy_repulsive:           27.968386

@<TRIPOS>MOLECULE
ZINC000341804698
 41 42 1 0 0
SMALL
USER_CHARGES


@<TRIPOS>ATOM
      1 C1          5.4691   -1.3846   49.8825 C.3     1  ZINC000341804698    0.0300
      2 O2          4.3262   -0.9129   49.1659 O.3     1  ZINC000341804698   -0.3900
      3 C3          3.2772   -0.4220   50.0030 C.3     1  ZINC000341804698    0.0700
      4 C4          2.6649    0.8300   49.3719 C.3     1  ZINC000341804698    0.0400
      5 C5          3.6940    1.8766   49.2605 C.1     1  ZINC000341804698    0.2200
      6 N6          4.4882    2.6841   49.1746 N.1     1  ZINC000341804698   -0.4200
      7 C7          2.1312    0.4897   47.9786 C.3     1  ZINC000341804698   -0.1200
      8 C8          1.5500    1.7532   47.3361 C.3     1  ZINC000341804698    0.1100
      9 N9          0.5464    2.3262   48.2433 N.am    1  ZINC000341804698   -0.6000
     10 C10        -0.7021    2.5883   47.8086 C.2     1  ZINC000341804698    0.5700
     11 O11        -1.0068    2.3506   46.6561 O.2     1  ZINC000341804698   -0.5200
     12 C12        -1.7012    3.1651   48.7334 C.ar    1  ZINC000341804698   -0.0900
     13 C13        -1.6097    4.5038   49.1169 C.ar    1  ZINC000341804698   -0.1100
     14 C14        -2.5438    5.0389   49.9804 C.ar    1  ZINC000341804698   -0.0800
     15 C15        -3.5712    4.2528   50.4677 C.ar    1  ZINC000341804698   -0.1700
     16 C16        -3.6702    2.9197   50.0922 C.ar    1  ZINC000341804698    0.1100
     17 O17        -4.6821    2.1513   50.5746 O.3     1  ZINC000341804698   -0.3100
     18 C18        -5.6073    2.7805   51.4638 C.3     1  ZINC000341804698    0.6000
     19 F19        -6.5770    1.8534   51.8604 F       1  ZINC000341804698   -0.1600
     20 F20        -4.9245    3.2519   52.5901 F       1  ZINC000341804698   -0.1300
     21 F21        -6.2260    3.8521   50.8112 F       1  ZINC000341804698   -0.1600
     22 C22        -2.7420    2.3744   49.2215 C.ar    1  ZINC000341804698   -0.0700
     23 C23         0.9295    2.6076   49.6335 C.3     1  ZINC000341804698    0.0900
     24 C24         1.5175    1.3346   50.2502 C.3     1  ZINC000341804698   -0.1200
     25 H25         5.8859   -0.5720   50.4773 H       1  ZINC000341804698    0.0400
     26 H26         5.1735   -2.2019   50.5404 H       1  ZINC000341804698    0.0500
     27 H27         6.2195   -1.7400   49.1763 H       1  ZINC000341804698    0.0900
     28 H28         2.5091   -1.1880   50.1097 H       1  ZINC000341804698    0.0700
     29 H29         3.6816   -0.1736   50.9843 H       1  ZINC000341804698    0.0600
     30 H30         2.9442    0.1084   47.3607 H       1  ZINC000341804698    0.1000
     31 H31         1.3515   -0.2674   48.0624 H       1  ZINC000341804698    0.0900
     32 H32         2.3470    2.4776   47.1684 H       1  ZINC000341804698    0.0700
     33 H33         1.0804    1.4972   46.3863 H       1  ZINC000341804698    0.1100
     34 H34        -0.8081    5.1207   48.7384 H       1  ZINC000341804698    0.1400
     35 H35        -2.4717    6.0750   50.2767 H       1  ZINC000341804698    0.1400
     36 H36        -4.2994    4.6769   51.1432 H       1  ZINC000341804698    0.1400
     37 H37        -2.8180    1.3377   48.9283 H       1  ZINC000341804698    0.1500
     38 H38         1.6759    3.4018   49.6532 H       1  ZINC000341804698    0.0800
     39 H39         0.0504    2.9154   50.1997 H       1  ZINC000341804698    0.1100
     40 H40         0.7437    0.5695   50.3127 H       1  ZINC000341804698    0.1000
     41 H41         1.8939    1.5546   51.2493 H       1  ZINC000341804698    0.0900
@<TRIPOS>BOND
     1     1     2    1
     2     1    25    1
     3     1    26    1
     4     1    27    1
     5     2     3    1
     6     3     4    1
     7     3    28    1
     8     3    29    1
     9     4    24    1
    10     4     5    1
    11     4     7    1
    12     5     6    3
    13     7     8    1
    14     7    30    1
    15     7    31    1
    16     8     9    1
    17     8    32    1
    18     8    33    1
    19     9    10   am
    20     9    23    1
    21    10    11    2
    22    10    12    1
    23    12    22   ar
    24    12    13   ar
    25    13    14   ar
    26    13    34    1
    27    14    15   ar
    28    14    35    1
    29    15    16   ar
    30    15    36    1
    31    16    17    1
    32    16    22   ar
    33    17    18    1
    34    18    19    1
    35    18    20    1
    36    18    21    1
    37    22    37    1
    38    23    24    1
    39    23    38    1
    40    23    39    1
    41    24    40    1
    42    24    41    1
@<TRIPOS>SUBSTRUCTURE
     1 ZINC000341804698        1 TEMP              0 ****  ****    0 ROOT


##########                                Name:    ZINC000863208514
##########                DOCK_Rotatable_Bonds:                   6
##########                         Heavy_Atoms:                  19
##########                    Molecular_Weight:             368.657
##########                DOCK_Rotatable_Bonds:                   6
##########                       Formal_Charge:           0.0100005
##########                     HBond_Acceptors:                   7
##########                        HBond_Donors:                   2
##########                         Heavy_Atoms:                  19
##########                          Grid_Score:          -25.188227
##########                     Grid_vdw_energy:          -23.739962
##########                      Grid_es_energy:           -1.448266
##########           Internal_energy_repulsive:           11.293392

@<TRIPOS>MOLECULE
ZINC000863208514
 31 31 1 0 0
SMALL
USER_CHARGES


@<TRIPOS>ATOM
      1 C1         -6.6012    1.6135   50.8514 C.3     1  ZINC000863208514    0.0900
      2 N2         -5.6748    2.6213   51.3731 N.am    1  ZINC000863208514   -0.6100
      3 C3         -6.1349    3.5949   52.3663 C.3     1  ZINC000863208514    0.0700
      4 C4         -4.3991    2.6528   50.9392 C.2     1  ZINC000863208514    0.5100
      5 O5         -4.0186    1.8478   50.1158 O.2     1  ZINC000863208514   -0.5400
      6 C6         -3.4457    3.6885   51.4771 C.3     1  ZINC000863208514    0.1100
      7 N7         -2.0801    3.1590   51.4441 N.am    1  ZINC000863208514   -0.6600
      8 C8         -1.3551    3.2349   50.3105 C.2     1  ZINC000863208514    0.5600
      9 S9          0.2414    2.6180   50.2725 S.2     1  ZINC000863208514   -0.6000
     10 N10        -1.8870    3.7965   49.2067 N.am    1  ZINC000863208514   -0.6300
     11 C11        -1.1336    3.8754   48.0287 C.ar    1  ZINC000863208514    0.1200
     12 C12        -0.5595    5.0805   47.6501 C.ar    1  ZINC000863208514   -0.0300
     13 C13         0.1842    5.1557   46.4868 C.ar    1  ZINC000863208514   -0.0200
     14 Cl14        0.9032    6.6631   46.0131 Cl      1  ZINC000863208514   -0.0300
     15 C15         0.3567    4.0301   45.6997 C.ar    1  ZINC000863208514   -0.0600
     16 Br16        1.3745    4.1373   44.1097 Br      1  ZINC000863208514   -0.0100
     17 C17        -0.2140    2.8265   46.0745 C.ar    1  ZINC000863208514   -0.1100
     18 C18        -0.9547    2.7444   47.2390 C.ar    1  ZINC000863208514    0.1100
     19 F19        -1.5119    1.5693   47.6048 F       1  ZINC000863208514   -0.1200
     20 H20        -7.5789    1.7439   51.3153 H       1  ZINC000863208514    0.0800
     21 H21        -6.6932    1.7288   49.7715 H       1  ZINC000863208514    0.0700
     22 H22        -6.2209    0.6177   51.0793 H       1  ZINC000863208514    0.0700
     23 H23        -5.9764    3.1949   53.3678 H       1  ZINC000863208514    0.0700
     24 H24        -5.5741    4.5226   52.2526 H       1  ZINC000863208514    0.0800
     25 H25        -7.1966    3.7916   52.2175 H       1  ZINC000863208514    0.0800
     26 H26        -3.5017    4.5875   50.8635 H       1  ZINC000863208514    0.1200
     27 H27        -3.7160    3.9324   52.5045 H       1  ZINC000863208514    0.1200
     28 H28        -1.6977    2.7537   52.2381 H       1  ZINC000863208514    0.4100
     29 H29        -2.7916    4.1460   49.2283 H       1  ZINC000863208514    0.4200
     30 H30        -0.6937    5.9593   48.2634 H       1  ZINC000863208514    0.1800
     31 H31        -0.0781    1.9498   45.4585 H       1  ZINC000863208514    0.1600
@<TRIPOS>BOND
     1     1     2    1
     2     1    20    1
     3     1    21    1
     4     1    22    1
     5     2     3    1
     6     2     4   am
     7     3    23    1
     8     3    24    1
     9     3    25    1
    10     4     5    2
    11     4     6    1
    12     6     7    1
    13     6    26    1
    14     6    27    1
    15     7     8   am
    16     7    28    1
    17     8     9    2
    18     8    10   am
    19    10    11    1
    20    10    29    1
    21    11    18   ar
    22    11    12   ar
    23    12    13   ar
    24    12    30    1
    25    13    14    1
    26    13    15   ar
    27    15    16    1
    28    15    17   ar
    29    17    18   ar
    30    17    31    1
    31    18    19    1
@<TRIPOS>SUBSTRUCTURE
     1 ZINC000863208514        1 TEMP              0 ****  ****    0 ROOT


##########                                Name:    ZINC000444542200
##########                DOCK_Rotatable_Bonds:                   8
##########                         Heavy_Atoms:                  28
##########                    Molecular_Weight:             404.337
##########                DOCK_Rotatable_Bonds:                   8
##########                       Formal_Charge:           0.0200001
##########                     HBond_Acceptors:                  10
##########                        HBond_Donors:                   1
##########                         Heavy_Atoms:                  28
##########                          Grid_Score:          -25.156710
##########                     Grid_vdw_energy:          -24.814852
##########                      Grid_es_energy:           -0.341858
##########           Internal_energy_repulsive:           22.071072

@<TRIPOS>MOLECULE
ZINC000444542200
 45 46 1 0 0
SMALL
USER_CHARGES


@<TRIPOS>ATOM
      1 C1         -6.3838    0.3517   51.1046 C.3     1  ZINC000444542200    0.0300
      2 O2         -5.1955    1.0722   50.7717 O.3     1  ZINC000444542200   -0.3100
      3 C3         -5.0065    2.2687   51.3878 C.ar    1  ZINC000444542200    0.1800
      4 C4         -5.6766    2.5542   52.5676 C.ar    1  ZINC000444542200   -0.1700
      5 C5         -5.4830    3.7762   53.1971 C.ar    1  ZINC000444542200    0.2300
      6 N6         -6.1586    4.0647   54.3881 N.am    1  ZINC000444542200   -0.5800
      7 C7         -7.6170    4.2040   54.3878 C.3     1  ZINC000444542200    0.0700
      8 C8         -5.4677    4.2143   55.5355 C.2     1  ZINC000444542200    0.7100
      9 O9         -6.0546    4.4652   56.5704 O.2     1  ZINC000444542200   -0.5500
     10 N10        -4.1260    4.0861   55.5358 N.am    1  ZINC000444542200   -0.7300
     11 C11        -3.3750    4.2470   56.7834 C.3     1  ZINC000444542200    0.1700
     12 H12        -3.9401    3.8099   57.6066 H       1  ZINC000444542200    0.1500
     13 C13        -2.0442    3.5506   56.6620 C.ar    1  ZINC000444542200   -0.1300
     14 C14        -1.3922    3.5134   55.4438 C.ar    1  ZINC000444542200   -0.0800
     15 C15        -0.1712    2.8748   55.3308 C.ar    1  ZINC000444542200   -0.0900
     16 C16         0.4001    2.2723   56.4357 C.ar    1  ZINC000444542200   -0.1100
     17 C17        -0.2502    2.3077   57.6570 C.ar    1  ZINC000444542200    0.0800
     18 F18         0.3076    1.7189   58.7374 F       1  ZINC000444542200   -0.1200
     19 C19        -1.4720    2.9530   57.7716 C.ar    1  ZINC000444542200    0.1000
     20 F20        -2.1086    2.9889   58.9627 F       1  ZINC000444542200   -0.1100
     21 C21        -3.1488    5.7358   57.0540 C.3     1  ZINC000444542200    0.4400
     22 F22        -2.9567    6.4063   55.8413 F       1  ZINC000444542200   -0.1600
     23 F23        -4.2662    6.2659   57.7080 F       1  ZINC000444542200   -0.1700
     24 F24        -2.0168    5.8966   57.8601 F       1  ZINC000444542200   -0.1800
     25 C25        -4.6187    4.7114   52.6449 C.ar    1  ZINC000444542200   -0.1900
     26 C26        -3.9493    4.4246   51.4650 C.ar    1  ZINC000444542200    0.1800
     27 O27        -3.1031    5.3402   50.9243 O.3     1  ZINC000444542200   -0.3100
     28 C28        -2.3715    4.9414   49.7635 C.3     1  ZINC000444542200    0.0300
     29 C29        -4.1390    3.2015   50.8395 C.ar    1  ZINC000444542200   -0.2900
     30 H30        -6.3901    0.1352   52.1729 H       1  ZINC000444542200    0.0600
     31 H31        -7.2567    0.9531   50.8505 H       1  ZINC000444542200    0.0600
     32 H32        -6.4110   -0.5829   50.5443 H       1  ZINC000444542200    0.1000
     33 H33        -6.3491    1.8261   52.9965 H       1  ZINC000444542200    0.1300
     34 H34        -8.0748    3.2329   54.5767 H       1  ZINC000444542200    0.0700
     35 H35        -7.9152    4.9043   55.1680 H       1  ZINC000444542200    0.0700
     36 H36        -7.9460    4.5784   53.4184 H       1  ZINC000444542200    0.0900
     37 H37        -3.6576    3.8872   54.7100 H       1  ZINC000444542200    0.4100
     38 H38        -1.8372    3.9834   54.5793 H       1  ZINC000444542200    0.1400
     39 H39         0.3366    2.8465   54.3780 H       1  ZINC000444542200    0.1500
     40 H40         1.3538    1.7734   56.3460 H       1  ZINC000444542200    0.1500
     41 H41        -4.4681    5.6625   53.1340 H       1  ZINC000444542200    0.1400
     42 H42        -3.0682    4.6801   48.9669 H       1  ZINC000444542200    0.0600
     43 H43        -1.7354    5.7633   49.4347 H       1  ZINC000444542200    0.1000
     44 H44        -1.7529    4.0766   50.0032 H       1  ZINC000444542200    0.0600
     45 H45        -3.6174    2.9786   49.9204 H       1  ZINC000444542200    0.1400
@<TRIPOS>BOND
     1     1     2    1
     2     1    30    1
     3     1    31    1
     4     1    32    1
     5     2     3    1
     6     3    29   ar
     7     3     4   ar
     8     4     5   ar
     9     4    33    1
    10     5     6    1
    11     5    25   ar
    12     6     7    1
    13     6     8   am
    14     7    34    1
    15     7    35    1
    16     7    36    1
    17     8     9    2
    18     8    10   am
    19    10    11    1
    20    10    37    1
    21    11    12    1
    22    11    13    1
    23    11    21    1
    24    13    19   ar
    25    13    14   ar
    26    14    15   ar
    27    14    38    1
    28    15    16   ar
    29    15    39    1
    30    16    17   ar
    31    16    40    1
    32    17    18    1
    33    17    19   ar
    34    19    20    1
    35    21    22    1
    36    21    23    1
    37    21    24    1
    38    25    26   ar
    39    25    41    1
    40    26    27    1
    41    26    29   ar
    42    27    28    1
    43    28    42    1
    44    28    43    1
    45    28    44    1
    46    29    45    1
@<TRIPOS>SUBSTRUCTURE
     1 ZINC000444542200        1 TEMP              0 ****  ****    0 ROOT


##########                                Name:    ZINC000345028113
##########                DOCK_Rotatable_Bonds:                   5
##########                         Heavy_Atoms:                  21
##########                    Molecular_Weight:             331.838
##########                DOCK_Rotatable_Bonds:                   5
##########                       Formal_Charge:         4.47035e-07
##########                     HBond_Acceptors:                   6
##########                        HBond_Donors:                   0
##########                         Heavy_Atoms:                  21
##########                          Grid_Score:          -25.091816
##########                     Grid_vdw_energy:          -23.995430
##########                      Grid_es_energy:           -1.096385
##########           Internal_energy_repulsive:           20.857479

@<TRIPOS>MOLECULE
ZINC000345028113
 40 41 1 0 0
SMALL
USER_CHARGES


@<TRIPOS>ATOM
      1 C1         -8.2760    3.0298   53.9939 C.3     1  ZINC000345028113   -0.1700
      2 C2         -8.8171    2.6776   52.6068 C.3     1  ZINC000345028113    0.1400
      3 H3         -9.1429    3.5872   52.1022 H       1  ZINC000345028113    0.1100
      4 C4        -10.0047    1.7197   52.7501 C.3     1  ZINC000345028113   -0.0700
      5 H5        -10.4156    1.4975   51.7653 H       1  ZINC000345028113    0.0900
      6 C6        -11.0830    2.3665   53.6217 C.3     1  ZINC000345028113   -0.1400
      7 S7         -9.4269    0.1832   53.5299 S.3     1  ZINC000345028113   -0.2400
      8 C8         -8.0600   -0.3141   52.4403 C.3     1  ZINC000345028113   -0.1100
      9 C9         -7.0693    0.8497   52.3285 C.3     1  ZINC000345028113    0.1000
     10 N10        -7.7631    2.0344   51.8208 N.am    1  ZINC000345028113   -0.6100
     11 C11        -7.4277    2.5384   50.6166 C.2     1  ZINC000345028113    0.5200
     12 O12        -7.9994    3.5189   50.1892 O.2     1  ZINC000345028113   -0.5300
     13 C13        -6.3424    1.8838   49.8014 C.3     1  ZINC000345028113   -0.1400
     14 C14        -4.9756    2.3686   50.2888 C.3     1  ZINC000345028113    0.0700
     15 O15        -3.9652    1.9466   49.3707 O.3     1  ZINC000345028113   -0.3000
     16 C16        -2.7476    2.5425   49.4760 C.ar    1  ZINC000345028113    0.1300
     17 C17        -2.4383    3.2957   50.5981 C.ar    1  ZINC000345028113   -0.1700
     18 C18        -1.2002    3.9005   50.7042 C.ar    1  ZINC000345028113   -0.1100
     19 C19        -0.2685    3.7549   49.6910 C.ar    1  ZINC000345028113    0.0800
     20 F20         0.9415    4.3464   49.7967 F       1  ZINC000345028113   -0.1300
     21 C21        -0.5751    3.0030   48.5692 C.ar    1  ZINC000345028113   -0.1100
     22 C22        -1.8107    2.3925   48.4625 C.ar    1  ZINC000345028113   -0.0400
     23 Cl23       -2.1953    1.4499   47.0564 Cl      1  ZINC000345028113   -0.0400
     24 H24        -7.4313    3.7113   53.8921 H       1  ZINC000345028113    0.0600
     25 H25        -9.0608    3.5088   54.5792 H       1  ZINC000345028113    0.0800
     26 H26        -7.9502    2.1203   54.4986 H       1  ZINC000345028113    0.0800
     27 H27       -11.4190    3.2931   53.1562 H       1  ZINC000345028113    0.0800
     28 H28       -11.9267    1.6837   53.7223 H       1  ZINC000345028113    0.0700
     29 H29       -10.6715    2.5835   54.6075 H       1  ZINC000345028113    0.0700
     30 H30        -7.5555   -1.1841   52.8608 H       1  ZINC000345028113    0.1200
     31 H31        -8.4504   -0.5577   51.4522 H       1  ZINC000345028113    0.0900
     32 H32        -6.6514    1.0668   53.3114 H       1  ZINC000345028113    0.0900
     33 H33        -6.2656    0.5782   51.6439 H       1  ZINC000345028113    0.1000
     34 H34        -6.4056    0.8015   49.9149 H       1  ZINC000345028113    0.1100
     35 H35        -6.4680    2.1469   48.7511 H       1  ZINC000345028113    0.1100
     36 H36        -4.9775    3.4569   50.3520 H       1  ZINC000345028113    0.0800
     37 H37        -4.7706    1.9480   51.2733 H       1  ZINC000345028113    0.0800
     38 H38        -3.1649    3.4101   51.3889 H       1  ZINC000345028113    0.1500
     39 H39        -0.9595    4.4875   51.5782 H       1  ZINC000345028113    0.1500
     40 H40         0.1527    2.8904   47.7792 H       1  ZINC000345028113    0.1500
@<TRIPOS>BOND
     1     1     2    1
     2     1    24    1
     3     1    25    1
     4     1    26    1
     5     2     3    1
     6     2    10    1
     7     2     4    1
     8     4     5    1
     9     4     6    1
    10     4     7    1
    11     6    27    1
    12     6    28    1
    13     6    29    1
    14     7     8    1
    15     8     9    1
    16     8    30    1
    17     8    31    1
    18     9    10    1
    19     9    32    1
    20     9    33    1
    21    10    11   am
    22    11    12    2
    23    11    13    1
    24    13    14    1
    25    13    34    1
    26    13    35    1
    27    14    15    1
    28    14    36    1
    29    14    37    1
    30    15    16    1
    31    16    22   ar
    32    16    17   ar
    33    17    18   ar
    34    17    38    1
    35    18    19   ar
    36    18    39    1
    37    19    20    1
    38    19    21   ar
    39    21    22   ar
    40    21    40    1
    41    22    23    1
@<TRIPOS>SUBSTRUCTURE
     1 ZINC000345028113        1 TEMP              0 ****  ****    0 ROOT


##########                                Name:    ZINC000534799364
##########                DOCK_Rotatable_Bonds:                   4
##########                         Heavy_Atoms:                  29
##########                    Molecular_Weight:             391.491
##########                DOCK_Rotatable_Bonds:                   4
##########                       Formal_Charge:           0.0199998
##########                     HBond_Acceptors:                   6
##########                        HBond_Donors:                   0
##########                         Heavy_Atoms:                  29
##########                          Grid_Score:          -25.090969
##########                     Grid_vdw_energy:          -24.415291
##########                      Grid_es_energy:           -0.675677
##########           Internal_energy_repulsive:           14.989612

@<TRIPOS>MOLECULE
ZINC000534799364
 55 59 1 0 0
SMALL
USER_CHARGES


@<TRIPOS>ATOM
      1 C1          3.8545    3.9172   42.5149 C.3     1  ZINC000534799364   -0.1100
      2 C2          4.5726    4.5309   43.6892 C.ar    1  ZINC000534799364   -0.0200
      3 C3          5.7140    5.2930   43.5035 C.ar    1  ZINC000534799364   -0.1700
      4 C4          6.3469    5.8406   44.6042 C.ar    1  ZINC000534799364    0.1000
      5 N5          5.8787    5.6466   45.8214 N.ar    1  ZINC000534799364   -0.4800
      6 C6          4.7958    4.9283   46.0427 C.ar    1  ZINC000534799364    0.0800
      7 C7          4.1014    4.3505   44.9877 C.ar    1  ZINC000534799364    0.0300
      8 N8          2.9538    3.5902   45.2261 N.3     1  ZINC000534799364   -0.5000
      9 C9          1.7430    4.4156   45.1161 C.3     1  ZINC000534799364    0.0600
     10 C10         0.5076    3.5321   45.3049 C.3     1  ZINC000534799364    0.0600
     11 N11         0.5752    2.8737   46.6169 N.3     1  ZINC000534799364   -0.5300
     12 C12        -0.6315    2.0743   46.8676 C.3     1  ZINC000534799364    0.1400
     13 C13        -1.4136    2.6872   48.0006 C.2     1  ZINC000534799364    0.1100
     14 N14        -2.4646    2.1640   48.5771 N.2     1  ZINC000534799364   -0.2800
     15 N15        -2.8954    3.0404   49.5804 N.pl3   1  ZINC000534799364   -0.3100
     16 C16        -3.9937    2.8457   50.4305 C.ar    1  ZINC000534799364    0.1500
     17 C17        -5.1469    2.2411   49.9489 C.ar    1  ZINC000534799364   -0.1000
     18 C18        -6.2274    2.0503   50.7876 C.ar    1  ZINC000534799364   -0.1300
     19 C19        -6.1610    2.4616   52.1083 C.ar    1  ZINC000534799364    0.1000
     20 F20        -7.2188    2.2738   52.9273 F       1  ZINC000534799364   -0.1300
     21 C21        -5.0115    3.0649   52.5905 C.ar    1  ZINC000534799364   -0.1300
     22 C22        -3.9269    3.2522   51.7563 C.ar    1  ZINC000534799364   -0.0800
     23 C23        -2.0636    4.1097   49.5846 C.2     1  ZINC000534799364    0.0500
     24 C24        -1.1359    3.9132   48.6216 C.2     1  ZINC000534799364   -0.2200
     25 C25        -0.1724    5.0797   48.5769 C.3     1  ZINC000534799364   -0.0400
     26 C26        -0.8829    6.2152   49.3455 C.3     1  ZINC000534799364   -0.1200
     27 C27        -1.8184    5.4263   50.2892 C.3     1  ZINC000534799364   -0.0500
     28 C28         1.7861    2.0483   46.7270 C.3     1  ZINC000534799364    0.0600
     29 C29         3.0214    2.9318   46.5382 C.3     1  ZINC000534799364    0.0600
     30 H30         3.0457    4.5761   42.1989 H       1  ZINC000534799364    0.0800
     31 H31         4.5552    3.7812   41.6912 H       1  ZINC000534799364    0.0600
     32 H32         3.4432    2.9505   42.8054 H       1  ZINC000534799364    0.0800
     33 H33         6.1055    5.4572   42.5105 H       1  ZINC000534799364    0.1400
     34 H34         7.2376    6.4354   44.4649 H       1  ZINC000534799364    0.1600
     35 H35         4.4426    4.7912   47.0541 H       1  ZINC000534799364    0.1500
     36 H36         1.7584    5.1882   45.8849 H       1  ZINC000534799364    0.0500
     37 H37         1.7093    4.8824   44.1317 H       1  ZINC000534799364    0.0800
     38 H38        -0.3908    4.1471   45.2524 H       1  ZINC000534799364    0.0900
     39 H39         0.4776    2.7765   44.5199 H       1  ZINC000534799364    0.0500
     40 H40        -1.2480    2.0555   45.9689 H       1  ZINC000534799364    0.1000
     41 H41        -0.3445    1.0568   47.1328 H       1  ZINC000534799364    0.0500
     42 H42        -5.1990    1.9205   48.9189 H       1  ZINC000534799364    0.1400
     43 H43        -7.1247    1.5803   50.4131 H       1  ZINC000534799364    0.1500
     44 H44        -4.9617    3.3855   53.6206 H       1  ZINC000534799364    0.1500
     45 H45        -3.0305    3.7224   52.1327 H       1  ZINC000534799364    0.1400
     46 H46         0.7636    4.8168   49.0696 H       1  ZINC000534799364    0.0800
     47 H47         0.0128    5.3787   47.5452 H       1  ZINC000534799364    0.0700
     48 H48        -0.1668    6.8073   49.9151 H       1  ZINC000534799364    0.0800
     49 H49        -1.4549    6.8468   48.6657 H       1  ZINC000534799364    0.0800
     50 H50        -2.7583    5.9612   50.4252 H       1  ZINC000534799364    0.0800
     51 H51        -1.3336    5.2601   51.2512 H       1  ZINC000534799364    0.0900
     52 H52         1.8197    1.5815   47.7114 H       1  ZINC000534799364    0.0900
     53 H53         1.7705    1.2757   45.9582 H       1  ZINC000534799364    0.0500
     54 H54         3.9199    2.3168   46.5907 H       1  ZINC000534799364    0.0800
     55 H55         3.0514    3.6875   47.3231 H       1  ZINC000534799364    0.0500
@<TRIPOS>BOND
     1     1     2    1
     2     1    30    1
     3     1    31    1
     4     1    32    1
     5     2     7   ar
     6     2     3   ar
     7     3     4   ar
     8     3    33    1
     9     4     5   ar
    10     4    34    1
    11     5     6   ar
    12     6     7   ar
    13     6    35    1
    14     7     8    1
    15     8    29    1
    16     8     9    1
    17     9    10    1
    18     9    36    1
    19     9    37    1
    20    10    11    1
    21    10    38    1
    22    10    39    1
    23    11    12    1
    24    11    28    1
    25    12    13    1
    26    12    40    1
    27    12    41    1
    28    13    24    1
    29    13    14    2
    30    14    15    1
    31    15    16    1
    32    15    23    1
    33    16    22   ar
    34    16    17   ar
    35    17    18   ar
    36    17    42    1
    37    18    19   ar
    38    18    43    1
    39    19    20    1
    40    19    21   ar
    41    21    22   ar
    42    21    44    1
    43    22    45    1
    44    23    27    1
    45    23    24    2
    46    24    25    1
    47    25    26    1
    48    25    46    1
    49    25    47    1
    50    26    27    1
    51    26    48    1
    52    26    49    1
    53    27    50    1
    54    27    51    1
    55    28    29    1
    56    28    52    1
    57    28    53    1
    58    29    54    1
    59    29    55    1
@<TRIPOS>SUBSTRUCTURE
     1 ZINC000534799364        1 TEMP              0 ****  ****    0 ROOT


##########                                Name:    ZINC000225856071
##########                DOCK_Rotatable_Bonds:                   6
##########                         Heavy_Atoms:                  29
##########                    Molecular_Weight:             409.549
##########                DOCK_Rotatable_Bonds:                   6
##########                       Formal_Charge:         -0.00999989
##########                     HBond_Acceptors:                   5
##########                        HBond_Donors:                   1
##########                         Heavy_Atoms:                  29
##########                          Grid_Score:          -25.083773
##########                     Grid_vdw_energy:          -25.141712
##########                      Grid_es_energy:            0.057939
##########           Internal_energy_repulsive:           27.920141

@<TRIPOS>MOLECULE
ZINC000225856071
 56 58 1 0 0
SMALL
USER_CHARGES


@<TRIPOS>ATOM
      1 C1        -17.8153   -2.1821   60.2489 C.3     1  ZINC000225856071    0.0200
      2 O2        -16.5952   -2.7591   60.7180 O.3     1  ZINC000225856071   -0.3100
      3 C3        -15.6191   -2.9722   59.7966 C.ar    1  ZINC000225856071    0.1900
      4 C4        -15.7538   -3.9909   58.8650 C.ar    1  ZINC000225856071   -0.2300
      5 C5        -14.7603   -4.2051   57.9289 C.ar    1  ZINC000225856071    0.0700
      6 C6        -14.9060   -5.3118   56.9164 C.3     1  ZINC000225856071   -0.1800
      7 C7        -13.6331   -3.4050   57.9201 C.ar    1  ZINC000225856071   -0.7100
      8 S8        -12.3682   -3.6804   56.7248 S.o2    1  ZINC000225856071    2.7000
      9 O9        -11.5258   -4.6930   57.2580 O.2     1  ZINC000225856071   -0.9600
     10 O10       -13.0218   -3.7952   55.4682 O.2     1  ZINC000225856071   -0.9500
     11 N11       -11.4539   -2.3016   56.6521 N.am    1  ZINC000225856071   -1.1100
     12 C12       -12.0753   -1.0296   56.2750 C.3     1  ZINC000225856071    0.2400
     13 H13       -13.0993   -1.0011   56.6474 H       1  ZINC000225856071    0.1100
     14 C14       -12.0831   -0.8999   54.7737 C.ar    1  ZINC000225856071   -0.1000
     15 C15       -10.8991   -0.6890   54.0920 C.ar    1  ZINC000225856071   -0.1000
     16 C16       -10.9061   -0.5700   52.7148 C.ar    1  ZINC000225856071   -0.1200
     17 C17       -12.0972   -0.6624   52.0192 C.ar    1  ZINC000225856071   -0.1100
     18 C18       -13.2811   -0.8742   52.7007 C.ar    1  ZINC000225856071   -0.1100
     19 C19       -13.2734   -0.9975   54.0775 C.ar    1  ZINC000225856071   -0.1000
     20 C20       -11.2911    0.1095   56.8736 C.ar    1  ZINC000225856071   -0.0900
     21 C21       -10.1215   -0.1447   57.5647 C.ar    1  ZINC000225856071   -0.1000
     22 C22        -9.4020    0.9005   58.1139 C.ar    1  ZINC000225856071   -0.1200
     23 C23        -9.8522    2.1994   57.9715 C.ar    1  ZINC000225856071   -0.0800
     24 C24        -9.0682    3.3385   58.5706 C.3     1  ZINC000225856071   -0.1200
     25 C25       -11.0215    2.4538   57.2790 C.ar    1  ZINC000225856071   -0.1200
     26 C26       -11.7387    1.4094   56.7268 C.ar    1  ZINC000225856071   -0.0600
     27 C27       -13.0133    1.6866   55.9719 C.3     1  ZINC000225856071   -0.1300
     28 C28       -13.4966   -2.3884   58.8476 C.ar    1  ZINC000225856071    0.0200
     29 C29       -14.4890   -2.1674   59.7827 C.ar    1  ZINC000225856071   -0.1400
     30 C30       -14.3398   -1.0591   60.7929 C.3     1  ZINC000225856071   -0.1100
     31 H31       -18.2599   -2.8338   59.4967 H       1  ZINC000225856071    0.0600
     32 H32       -18.5069   -2.0660   61.0835 H       1  ZINC000225856071    0.1000
     33 H33       -17.6101   -1.2062   59.8086 H       1  ZINC000225856071    0.0600
     34 H34       -16.6343   -4.6162   58.8713 H       1  ZINC000225856071    0.1400
     35 H35       -15.3998   -4.9256   56.0246 H       1  ZINC000225856071    0.0900
     36 H36       -13.9201   -5.6923   56.6497 H       1  ZINC000225856071    0.1000
     37 H37       -15.5036   -6.1177   57.3423 H       1  ZINC000225856071    0.0800
     38 H38       -10.5069   -2.3361   56.8591 H       1  ZINC000225856071    0.4200
     39 H39        -9.9686   -0.6169   54.6355 H       1  ZINC000225856071    0.1200
     40 H40        -9.9812   -0.4045   52.1823 H       1  ZINC000225856071    0.1200
     41 H41       -12.1028   -0.5687   50.9433 H       1  ZINC000225856071    0.1200
     42 H42       -14.2115   -0.9459   52.1573 H       1  ZINC000225856071    0.1200
     43 H43       -14.1984   -1.1629   54.6100 H       1  ZINC000225856071    0.1200
     44 H44        -9.7697   -1.1597   57.6760 H       1  ZINC000225856071    0.1200
     45 H45        -8.4884    0.7017   58.6545 H       1  ZINC000225856071    0.1200
     46 H46        -8.3435    3.7032   57.8426 H       1  ZINC000225856071    0.0700
     47 H47        -9.7492    4.1456   58.8409 H       1  ZINC000225856071    0.0700
     48 H48        -8.5451    2.9907   59.4613 H       1  ZINC000225856071    0.0700
     49 H49       -11.3731    3.4689   57.1674 H       1  ZINC000225856071    0.1200
     50 H50       -12.7842    1.8461   54.9182 H       1  ZINC000225856071    0.0800
     51 H51       -13.6875    0.8361   56.0725 H       1  ZINC000225856071    0.0700
     52 H52       -13.4901    2.5782   56.3790 H       1  ZINC000225856071    0.0700
     53 H53       -12.6152   -1.7644   58.8385 H       1  ZINC000225856071    0.1500
     54 H54       -14.7676   -0.1407   60.3905 H       1  ZINC000225856071    0.0700
     55 H55       -14.8615   -1.3312   61.7104 H       1  ZINC000225856071    0.0700
     56 H56       -13.2827   -0.9036   61.0084 H       1  ZINC000225856071    0.0700
@<TRIPOS>BOND
     1     1     2    1
     2     1    31    1
     3     1    32    1
     4     1    33    1
     5     2     3    1
     6     3    29   ar
     7     3     4   ar
     8     4     5   ar
     9     4    34    1
    10     5     6    1
    11     5     7   ar
    12     6    35    1
    13     6    36    1
    14     6    37    1
    15     7     8    1
    16     7    28   ar
    17     8     9    2
    18     8    10    2
    19     8    11   am
    20    11    12    1
    21    11    38    1
    22    12    13    1
    23    12    14    1
    24    12    20    1
    25    14    19   ar
    26    14    15   ar
    27    15    16   ar
    28    15    39    1
    29    16    17   ar
    30    16    40    1
    31    17    18   ar
    32    17    41    1
    33    18    19   ar
    34    18    42    1
    35    19    43    1
    36    20    26   ar
    37    20    21   ar
    38    21    22   ar
    39    21    44    1
    40    22    23   ar
    41    22    45    1
    42    23    24    1
    43    23    25   ar
    44    24    46    1
    45    24    47    1
    46    24    48    1
    47    25    26   ar
    48    25    49    1
    49    26    27    1
    50    27    50    1
    51    27    51    1
    52    27    52    1
    53    28    29   ar
    54    28    53    1
    55    29    30    1
    56    30    54    1
    57    30    55    1
    58    30    56    1
@<TRIPOS>SUBSTRUCTURE
     1 ZINC000225856071        1 TEMP              0 ****  ****    0 ROOT


##########                                Name:    ZINC000864477301
##########                DOCK_Rotatable_Bonds:                   6
##########                         Heavy_Atoms:                  26
##########                    Molecular_Weight:             393.891
##########                DOCK_Rotatable_Bonds:                   6
##########                       Formal_Charge:         -0.00999978
##########                     HBond_Acceptors:                   7
##########                        HBond_Donors:                   1
##########                         Heavy_Atoms:                  26
##########                          Grid_Score:          -25.078405
##########                     Grid_vdw_energy:          -23.732727
##########                      Grid_es_energy:           -1.345678
##########           Internal_energy_repulsive:           16.289066

@<TRIPOS>MOLECULE
ZINC000864477301
 46 47 1 0 0
SMALL
USER_CHARGES


@<TRIPOS>ATOM
      1 C1         -6.3056    1.0865   51.2692 C.3     1  ZINC000864477301   -0.1500
      2 C2         -5.9173    2.1988   50.2931 C.3     1  ZINC000864477301    0.0600
      3 O3         -6.6285    3.4165   50.6391 O.3     1  ZINC000864477301   -0.3500
      4 C4         -5.9425    4.3521   51.3237 C.2     1  ZINC000864477301    0.5100
      5 O5         -6.4806    5.3973   51.6295 O.2     1  ZINC000864477301   -0.5000
      6 C6         -4.5358    4.1071   51.7024 C.ar    1  ZINC000864477301   -0.1400
      7 C7         -4.2287    3.5917   52.9630 C.ar    1  ZINC000864477301   -0.0300
      8 C8         -2.9127    3.3654   53.3102 C.ar    1  ZINC000864477301   -0.1500
      9 C9         -1.8987    3.6485   52.4127 C.ar    1  ZINC000864477301   -0.0100
     10 C10        -2.1961    4.1596   51.1615 C.ar    1  ZINC000864477301   -0.4900
     11 S11        -0.8967    4.5165   50.0262 S.o     1  ZINC000864477301    1.3800
     12 O12        -1.4771    5.4934   49.1730 O.2     1  ZINC000864477301   -0.8100
     13 C13        -0.7076    2.9571   49.1191 C.3     1  ZINC000864477301   -0.4600
     14 H14        -0.3616    2.1800   49.8006 H       1  ZINC000864477301    0.1400
     15 C15        -2.0552    2.5482   48.5212 C.3     1  ZINC000864477301   -0.1400
     16 C16         0.2987    3.1387   48.0121 C.2     1  ZINC000864477301    0.5500
     17 O17         0.6409    4.2542   47.6806 O.2     1  ZINC000864477301   -0.5100
     18 N18         0.8183    2.0618   47.3904 N.am    1  ZINC000864477301   -0.6800
     19 C19         1.7531    2.2306   46.3621 C.ar    1  ZINC000864477301    0.1400
     20 C20         1.3638    2.7913   45.1534 C.ar    1  ZINC000864477301   -0.0600
     21 C21        -0.0662    3.2192   44.9463 C.3     1  ZINC000864477301   -0.1100
     22 C22         2.2887    2.9571   44.1405 C.ar    1  ZINC000864477301   -0.1100
     23 C23         3.6010    2.5654   44.3291 C.ar    1  ZINC000864477301   -0.1000
     24 C24         3.9928    2.0059   45.5318 C.ar    1  ZINC000864477301   -0.1100
     25 C25         3.0743    1.8425   46.5511 C.ar    1  ZINC000864477301   -0.0200
     26 Cl26        3.5666    1.1408   48.0607 Cl      1  ZINC000864477301   -0.0600
     27 C27        -3.5076    4.3848   50.7991 C.ar    1  ZINC000864477301    0.0100
     28 H28        -6.0423    1.3852   52.2839 H       1  ZINC000864477301    0.0700
     29 H29        -7.3794    0.9094   51.2097 H       1  ZINC000864477301    0.0700
     30 H30        -5.7716    0.1724   51.0095 H       1  ZINC000864477301    0.0800
     31 H31        -4.8435    2.3759   50.3526 H       1  ZINC000864477301    0.0700
     32 H32        -6.1806    1.9001   49.2785 H       1  ZINC000864477301    0.0700
     33 H33        -5.0193    3.3710   53.6648 H       1  ZINC000864477301    0.1400
     34 H34        -2.6736    2.9668   54.2851 H       1  ZINC000864477301    0.1400
     35 H35        -0.8702    3.4702   52.6899 H       1  ZINC000864477301    0.1500
     36 H36        -1.9416    1.6111   47.9761 H       1  ZINC000864477301    0.0700
     37 H37        -2.7831    2.4167   49.3219 H       1  ZINC000864477301    0.0700
     38 H38        -2.4012    3.3253   47.8397 H       1  ZINC000864477301    0.0700
     39 H39         0.5446    1.1697   47.6553 H       1  ZINC000864477301    0.4100
     40 H40        -0.1834    4.2575   45.2569 H       1  ZINC000864477301    0.0800
     41 H41        -0.3250    3.1241   43.8918 H       1  ZINC000864477301    0.0700
     42 H42        -0.7248    2.5858   45.5406 H       1  ZINC000864477301    0.0700
     43 H43         1.9860    3.3930   43.1998 H       1  ZINC000864477301    0.1400
     44 H44         4.3217    2.6962   43.5356 H       1  ZINC000864477301    0.1400
     45 H45         5.0188    1.7006   45.6760 H       1  ZINC000864477301    0.1400
     46 H46        -3.7385    4.7833   49.8222 H       1  ZINC000864477301    0.1400
@<TRIPOS>BOND
     1     1     2    1
     2     1    28    1
     3     1    29    1
     4     1    30    1
     5     2     3    1
     6     2    31    1
     7     2    32    1
     8     3     4    1
     9     4     5    2
    10     4     6    1
    11     6    27   ar
    12     6     7   ar
    13     7     8   ar
    14     7    33    1
    15     8     9   ar
    16     8    34    1
    17     9    10   ar
    18     9    35    1
    19    10    11    1
    20    10    27   ar
    21    11    12    2
    22    11    13    1
    23    13    14    1
    24    13    15    1
    25    13    16    1
    26    15    36    1
    27    15    37    1
    28    15    38    1
    29    16    17    2
    30    16    18   am
    31    18    19    1
    32    18    39    1
    33    19    25   ar
    34    19    20   ar
    35    20    21    1
    36    20    22   ar
    37    21    40    1
    38    21    41    1
    39    21    42    1
    40    22    23   ar
    41    22    43    1
    42    23    24   ar
    43    23    44    1
    44    24    25   ar
    45    24    45    1
    46    25    26    1
    47    27    46    1
@<TRIPOS>SUBSTRUCTURE
     1 ZINC000864477301        1 TEMP              0 ****  ****    0 ROOT


##########                                Name:    ZINC000277311370
##########                DOCK_Rotatable_Bonds:                   5
##########                         Heavy_Atoms:                  17
##########                    Molecular_Weight:             361.036
##########                DOCK_Rotatable_Bonds:                   5
##########                       Formal_Charge:        -7.45058e-08
##########                     HBond_Acceptors:                   4
##########                        HBond_Donors:                   1
##########                         Heavy_Atoms:                  17
##########                          Grid_Score:          -25.074026
##########                     Grid_vdw_energy:          -24.315771
##########                      Grid_es_energy:           -0.758254
##########           Internal_energy_repulsive:           13.459636

@<TRIPOS>MOLECULE
ZINC000277311370
 28 28 1 0 0
SMALL
USER_CHARGES


@<TRIPOS>ATOM
      1 C1         -8.0920    3.1174   51.9838 C.3     1  ZINC000277311370   -0.1500
      2 C2         -7.6029    1.8290   52.6485 C.3     1  ZINC000277311370   -0.1000
      3 C3         -8.7894    1.0998   53.2820 C.3     1  ZINC000277311370   -0.1600
      4 C4         -6.9529    0.9277   51.5967 C.3     1  ZINC000277311370    0.2500
      5 H5         -7.5811    0.8967   50.7065 H       1  ZINC000277311370    0.1400
      6 C6         -6.8043   -0.4323   52.1401 C.1     1  ZINC000277311370    0.1900
      7 N7         -6.6896   -1.4817   52.5594 N.1     1  ZINC000277311370   -0.4100
      8 N8         -5.6340    1.4601   51.2454 N.am    1  ZINC000277311370   -0.7000
      9 C9         -5.4600    2.1145   50.0800 C.2     1  ZINC000277311370    0.5700
     10 O10        -6.3969    2.2617   49.3201 O.2     1  ZINC000277311370   -0.4900
     11 C11        -4.1273    2.6543   49.7257 C.ar    1  ZINC000277311370    0.1100
     12 N12        -3.4326    2.0983   48.7404 N.ar    1  ZINC000277311370   -0.4300
     13 C13        -2.2454    2.5477   48.3939 C.ar    1  ZINC000277311370    0.1300
     14 Br14       -1.3075    1.7107   46.9812 Br      1  ZINC000277311370    0.0200
     15 C15        -1.6726    3.6270   49.0504 C.ar    1  ZINC000277311370   -0.1100
     16 C16        -2.3631    4.2372   50.0847 C.ar    1  ZINC000277311370   -0.0400
     17 C17        -3.6150    3.7455   50.4255 C.ar    1  ZINC000277311370   -0.0900
     18 Br18       -4.6064    4.5360   51.8284 Br      1  ZINC000277311370    0.0300
     19 H19        -8.5552    3.7595   52.7330 H       1  ZINC000277311370    0.0700
     20 H20        -7.2467    3.6369   51.5325 H       1  ZINC000277311370    0.0700
     21 H21        -8.8226    2.8737   51.2125 H       1  ZINC000277311370    0.0600
     22 H22        -6.8724    2.0727   53.4198 H       1  ZINC000277311370    0.1000
     23 H23        -9.5200    0.8560   52.5106 H       1  ZINC000277311370    0.0600
     24 H24        -8.4411    0.1818   53.7553 H       1  ZINC000277311370    0.0600
     25 H25        -9.2526    1.7419   54.0312 H       1  ZINC000277311370    0.0700
     26 H26        -4.8860    1.3416   51.8514 H       1  ZINC000277311370    0.4200
     27 H27        -0.6977    3.9880   48.7582 H       1  ZINC000277311370    0.1600
     28 H28        -1.9384    5.0792   50.6111 H       1  ZINC000277311370    0.1700
@<TRIPOS>BOND
     1     1     2    1
     2     1    19    1
     3     1    20    1
     4     1    21    1
     5     2     3    1
     6     2     4    1
     7     2    22    1
     8     3    23    1
     9     3    24    1
    10     3    25    1
    11     4     5    1
    12     4     6    1
    13     4     8    1
    14     6     7    3
    15     8     9   am
    16     8    26    1
    17     9    10    2
    18     9    11    1
    19    11    17   ar
    20    11    12   ar
    21    12    13   ar
    22    13    14    1
    23    13    15   ar
    24    15    16   ar
    25    15    27    1
    26    16    17   ar
    27    16    28    1
    28    17    18    1
@<TRIPOS>SUBSTRUCTURE
     1 ZINC000277311370        1 TEMP              0 ****  ****    0 ROOT


##########                                Name:    ZINC000826324849
##########                DOCK_Rotatable_Bonds:                   4
##########                         Heavy_Atoms:                  27
##########                    Molecular_Weight:             395.374
##########                DOCK_Rotatable_Bonds:                   4
##########                       Formal_Charge:           0.0400001
##########                     HBond_Acceptors:                  13
##########                        HBond_Donors:                   1
##########                         Heavy_Atoms:                  27
##########                          Grid_Score:          -25.071705
##########                     Grid_vdw_energy:          -25.290243
##########                      Grid_es_energy:            0.218539
##########           Internal_energy_repulsive:          104.254890

@<TRIPOS>MOLECULE
ZINC000826324849
 41 44 1 0 0
SMALL
USER_CHARGES


@<TRIPOS>ATOM
      1 C1          2.3603   -1.7550   50.0060 C.3     1  ZINC000826324849   -0.0600
      2 C2          2.7786   -0.4362   49.4086 C.2     1  ZINC000826324849    0.2000
      3 N3          2.1900    0.1960   48.4220 N.2     1  ZINC000826324849   -0.4600
      4 C4          2.9061    1.3187   48.2329 C.2     1  ZINC000826324849    0.1600
      5 C5          2.6339    2.3880   47.2066 C.3     1  ZINC000826324849    0.2200
      6 H6          3.5519    2.9367   46.9957 H       1  ZINC000826324849    0.1300
      7 C7          2.1092    1.7451   45.9177 C.3     1  ZINC000826324849    0.0600
      8 O8          1.6797    2.7718   45.0205 O.3     1  ZINC000826324849   -0.3600
      9 C9          0.5956    3.5632   45.5124 C.3     1  ZINC000826324849    0.0400
     10 C10         1.0428    4.2993   46.7804 C.3     1  ZINC000826324849    0.0800
     11 N11         1.6091    3.3135   47.7150 N.am    1  ZINC000826324849   -1.0100
     12 S12         1.1066    3.2468   49.2916 S.o2    1  ZINC000826324849    2.7100
     13 O13         1.7301    2.1051   49.8634 O.2     1  ZINC000826324849   -0.9300
     14 O14         1.2564    4.5588   49.8163 O.2     1  ZINC000826324849   -0.9300
     15 C15        -0.6234    2.9125   49.2739 C.ar    1  ZINC000826324849   -0.5800
     16 C16        -1.1809    2.2110   48.2243 C.ar    1  ZINC000826324849   -0.0400
     17 C17        -2.5389    1.9472   48.2078 C.ar    1  ZINC000826324849   -0.0800
     18 C18        -3.3463    2.3844   49.2414 C.ar    1  ZINC000826324849   -0.1100
     19 C19        -2.7990    3.0884   50.2985 C.ar    1  ZINC000826324849    0.1300
     20 F20        -3.5879    3.5153   51.3086 F       1  ZINC000826324849   -0.1100
     21 C21        -1.4292    3.3512   50.3220 C.ar    1  ZINC000826324849    0.0500
     22 C22        -0.8346    4.1057   51.4536 C.2     1  ZINC000826324849    0.1800
     23 N23        -0.8191    5.4150   51.6052 N.2     1  ZINC000826324849   -0.2600
     24 N24        -0.2131    5.6767   52.7121 N.pl3   1  ZINC000826324849   -0.2200
     25 N25         0.1556    4.5750   53.2664 N.2     1  ZINC000826324849   -0.0200
     26 N26        -0.2141    3.5878   52.5231 N.2     1  ZINC000826324849   -0.2600
     27 N27         3.8756    1.3121   49.0981 N.2     1  ZINC000826324849   -0.3800
     28 O28         3.8169    0.3154   49.7870 O.3     1  ZINC000826324849    0.0900
     29 H29         3.0421   -2.0205   50.8139 H       1  ZINC000826324849    0.1000
     30 H30         1.3470   -1.6709   50.3986 H       1  ZINC000826324849    0.1100
     31 H31         2.3893   -2.5274   49.2376 H       1  ZINC000826324849    0.1100
     32 H32         2.9041    1.1630   45.4515 H       1  ZINC000826324849    0.1200
     33 H33         1.2687    1.0920   46.1527 H       1  ZINC000826324849    0.0600
     34 H34         0.3016    4.2893   44.7544 H       1  ZINC000826324849    0.1200
     35 H35        -0.2504    2.9167   45.7459 H       1  ZINC000826324849    0.0600
     36 H36         1.8002    5.0410   46.5266 H       1  ZINC000826324849    0.0900
     37 H37         0.1861    4.7915   47.2407 H       1  ZINC000826324849    0.1100
     38 H38        -0.5555    1.8673   47.4136 H       1  ZINC000826324849    0.1400
     39 H39        -2.9701    1.3978   47.3841 H       1  ZINC000826324849    0.1500
     40 H40        -4.4059    2.1764   49.2230 H       1  ZINC000826324849    0.1500
     41 H41        -0.0587    6.5645   53.0709 H       1  ZINC000826324849    0.4800
@<TRIPOS>BOND
     1     1     2    1
     2     1    29    1
     3     1    30    1
     4     1    31    1
     5     2    28    1
     6     2     3    2
     7     3     4    1
     8     4     5    1
     9     4    27    2
    10     5     6    1
    11     5    11    1
    12     5     7    1
    13     7     8    1
    14     7    32    1
    15     7    33    1
    16     8     9    1
    17     9    10    1
    18     9    34    1
    19     9    35    1
    20    10    11    1
    21    10    36    1
    22    10    37    1
    23    11    12   am
    24    12    13    2
    25    12    14    2
    26    12    15    1
    27    15    21   ar
    28    15    16   ar
    29    16    17   ar
    30    16    38    1
    31    17    18   ar
    32    17    39    1
    33    18    19   ar
    34    18    40    1
    35    19    20    1
    36    19    21   ar
    37    21    22    1
    38    22    26    1
    39    22    23    2
    40    23    24    1
    41    24    25    1
    42    24    41    1
    43    25    26    2
    44    27    28    1
@<TRIPOS>SUBSTRUCTURE
     1 ZINC000826324849        1 TEMP              0 ****  ****    0 ROOT


##########                                Name:    ZINC001076281847
##########                DOCK_Rotatable_Bonds:                   4
##########                         Heavy_Atoms:                  24
##########                    Molecular_Weight:             362.883
##########                DOCK_Rotatable_Bonds:                   4
##########                       Formal_Charge:         -0.00999959
##########                     HBond_Acceptors:                   7
##########                        HBond_Donors:                   0
##########                         Heavy_Atoms:                  24
##########                          Grid_Score:          -25.046732
##########                     Grid_vdw_energy:          -24.385445
##########                      Grid_es_energy:           -0.661288
##########           Internal_energy_repulsive:            5.472785

@<TRIPOS>MOLECULE
ZINC001076281847
 43 46 1 0 0
SMALL
USER_CHARGES


@<TRIPOS>ATOM
      1 C1         -6.8772    1.8551   50.8972 C.3     1  ZINC001076281847   -0.0900
      2 C2         -5.8299    2.8477   51.3322 C.2     1  ZINC001076281847    0.1400
      3 N3         -6.1497    4.0431   51.7329 N.2     1  ZINC001076281847   -0.4600
      4 S4         -4.7063    4.8404   52.1299 S.3     1  ZINC001076281847    0.2500
      5 C5         -3.6707    3.5225   51.7416 C.2     1  ZINC001076281847   -0.2100
      6 C6         -2.1678    3.4823   51.8450 C.3     1  ZINC001076281847    0.1200
      7 N7         -1.5933    4.5820   51.0585 N.3     1  ZINC001076281847   -0.5000
      8 C8         -1.9468    4.4536   49.6361 C.3     1  ZINC001076281847    0.0300
      9 C9         -0.7010    4.8654   48.8289 C.3     1  ZINC001076281847   -0.1000
     10 H10        -0.7215    5.9046   48.5007 H       1  ZINC001076281847    0.1200
     11 C11        -0.5195    3.8543   47.6665 C.3     1  ZINC001076281847   -0.1300
     12 C12         0.0079    2.6049   48.4141 C.3     1  ZINC001076281847    0.1000
     13 N13         0.8899    3.1400   49.4669 N.am    1  ZINC001076281847   -0.6000
     14 C14         1.9072    2.4760   50.0504 C.2     1  ZINC001076281847    0.5700
     15 O15         2.5715    3.0176   50.9119 O.2     1  ZINC001076281847   -0.4900
     16 C16         2.2153    1.0865   49.6420 C.ar    1  ZINC001076281847   -0.0800
     17 C17         1.5045    0.0065   50.1743 C.ar    1  ZINC001076281847   -0.1800
     18 C18         1.8245   -1.2734   49.7650 C.ar    1  ZINC001076281847    0.1000
     19 N19         2.7842   -1.4838   48.8862 N.ar    1  ZINC001076281847   -0.4500
     20 C20         3.4793   -0.4959   48.3593 C.ar    1  ZINC001076281847    0.1100
     21 C21         3.2224    0.8177   48.7079 C.ar    1  ZINC001076281847   -0.0500
     22 Cl22        4.1434    2.1119   48.0075 Cl      1  ZINC001076281847   -0.0100
     23 C23         0.4776    4.5365   49.7845 C.3     1  ZINC001076281847    0.1000
     24 H24         1.3084    5.2319   49.6633 H       1  ZINC001076281847    0.1100
     25 C25        -0.1292    4.6168   51.1921 C.3     1  ZINC001076281847    0.0200
     26 C26        -4.4891    2.5293   51.3294 C.2     1  ZINC001076281847   -0.1800
     27 H27        -7.1490    1.2206   51.7407 H       1  ZINC001076281847    0.0700
     28 H28        -7.7597    2.3890   50.5448 H       1  ZINC001076281847    0.0800
     29 H29        -6.4802    1.2378   50.0912 H       1  ZINC001076281847    0.0900
     30 H30        -1.8725    3.5892   52.8888 H       1  ZINC001076281847    0.1000
     31 H31        -1.8024    2.5305   51.4597 H       1  ZINC001076281847    0.1000
     32 H32        -2.2129    3.4211   49.4099 H       1  ZINC001076281847    0.0600
     33 H33        -2.7803    5.1144   49.3981 H       1  ZINC001076281847    0.0900
     34 H34        -1.4718    3.6445   47.1797 H       1  ZINC001076281847    0.0900
     35 H35         0.2139    4.2161   46.9458 H       1  ZINC001076281847    0.0800
     36 H36        -0.8194    2.0508   48.8575 H       1  ZINC001076281847    0.0800
     37 H37         0.5723    1.9663   47.7346 H       1  ZINC001076281847    0.0800
     38 H38         0.7170    0.1705   50.8951 H       1  ZINC001076281847    0.1800
     39 H39         1.2810   -2.1137   50.1712 H       1  ZINC001076281847    0.1700
     40 H40         4.2569   -0.7147   47.6425 H       1  ZINC001076281847    0.1700
     41 H41         0.1902    5.5381   51.6793 H       1  ZINC001076281847    0.1000
     42 H42         0.1919    3.7579   51.7815 H       1  ZINC001076281847    0.0700
     43 H43        -4.1207    1.5637   51.0159 H       1  ZINC001076281847    0.1400
@<TRIPOS>BOND
     1     1     2    1
     2     1    27    1
     3     1    28    1
     4     1    29    1
     5     2    26    1
     6     2     3    2
     7     3     4    1
     8     4     5    1
     9     5     6    1
    10     5    26    2
    11     6     7    1
    12     6    30    1
    13     6    31    1
    14     7    25    1
    15     7     8    1
    16     8     9    1
    17     8    32    1
    18     8    33    1
    19     9    10    1
    20     9    23    1
    21     9    11    1
    22    11    12    1
    23    11    34    1
    24    11    35    1
    25    12    13    1
    26    12    36    1
    27    12    37    1
    28    13    14   am
    29    13    23    1
    30    14    15    2
    31    14    16    1
    32    16    21   ar
    33    16    17   ar
    34    17    18   ar
    35    17    38    1
    36    18    19   ar
    37    18    39    1
    38    19    20   ar
    39    20    21   ar
    40    20    40    1
    41    21    22    1
    42    23    24    1
    43    23    25    1
    44    25    41    1
    45    25    42    1
    46    26    43    1
@<TRIPOS>SUBSTRUCTURE
     1 ZINC001076281847        1 TEMP              0 ****  ****    0 ROOT


##########                                Name:    ZINC001231746020
##########                DOCK_Rotatable_Bonds:                   3
##########                         Heavy_Atoms:                  19
##########                    Molecular_Weight:             348.667
##########                DOCK_Rotatable_Bonds:                   3
##########                       Formal_Charge:          -0.0399997
##########                     HBond_Acceptors:                   4
##########                        HBond_Donors:                   2
##########                         Heavy_Atoms:                  19
##########                          Grid_Score:          -24.968935
##########                     Grid_vdw_energy:          -21.619759
##########                      Grid_es_energy:           -3.349176
##########           Internal_energy_repulsive:            9.962225

@<TRIPOS>MOLECULE
ZINC001231746020
 38 39 1 0 0
SMALL
USER_CHARGES


@<TRIPOS>ATOM
      1 C1         -1.1917    2.6274   58.5094 C.3     1  ZINC001231746020   -0.1500
      2 C2         -1.4746    3.1836   57.1125 C.3     1  ZINC001231746020   -0.0900
      3 H3         -2.1377    2.5046   56.5763 H       1  ZINC001231746020    0.0800
      4 C4         -2.1254    4.5359   57.2302 C.3     1  ZINC001231746020   -0.1400
      5 C5         -3.1046    4.8480   56.0842 C.3     1  ZINC001231746020   -0.0100
      6 N6         -2.6009    4.4512   54.7518 N.4     1  ZINC001231746020   -0.3800
      7 H7         -2.7234    3.4563   54.6374 H       1  ZINC001231746020    0.4100
      8 C8         -3.3779    5.1501   53.7195 C.3     1  ZINC001231746020    0.0700
      9 C9         -3.5242    4.2600   52.5123 C.ar    1  ZINC001231746020   -0.3100
     10 C10        -4.5205    3.3022   52.4780 C.ar    1  ZINC001231746020   -0.0300
     11 C11        -4.6574    2.4844   51.3714 C.ar    1  ZINC001231746020   -0.1600
     12 Cl12       -5.9087    1.2819   51.3291 Cl      1  ZINC001231746020   -0.0800
     13 C13        -3.7930    2.6257   50.2948 C.ar    1  ZINC001231746020    0.3100
     14 O14        -3.9255    1.8234   49.2054 O.3     1  ZINC001231746020   -0.6300
     15 C15        -2.7936    3.5878   50.3323 C.ar    1  ZINC001231746020   -0.2100
     16 Br16       -1.6134    3.7841   48.8678 Br      1  ZINC001231746020   -0.0600
     17 C17        -2.6653    4.4066   51.4386 C.ar    1  ZINC001231746020   -0.0200
     18 C18        -1.2041    4.7727   54.5863 C.3     1  ZINC001231746020   -0.0200
     19 C19        -0.3880    3.5104   54.9084 C.3     1  ZINC001231746020   -0.1800
     20 C20        -0.1433    3.3352   56.3347 C.3     1  ZINC001231746020    0.1000
     21 H21         0.4636    2.4426   56.4867 H       1  ZINC001231746020    0.0700
     22 O22         0.5641    4.4727   56.8326 O.3     1  ZINC001231746020   -0.5600
     23 H23        -2.1282    2.5323   59.0591 H       1  ZINC001231746020    0.0600
     24 H24        -0.5249    3.3054   59.0422 H       1  ZINC001231746020    0.0700
     25 H25        -0.7205    1.6483   58.4221 H       1  ZINC001231746020    0.0600
     26 H26        -2.6676    4.5812   58.1746 H       1  ZINC001231746020    0.1000
     27 H27        -1.3467    5.2985   57.2388 H       1  ZINC001231746020    0.1000
     28 H28        -4.0413    4.3237   56.2733 H       1  ZINC001231746020    0.1200
     29 H29        -3.3031    5.9197   56.0771 H       1  ZINC001231746020    0.1200
     30 H30        -4.3649    5.3958   54.1115 H       1  ZINC001231746020    0.1200
     31 H31        -2.8616    6.0668   53.4345 H       1  ZINC001231746020    0.1200
     32 H32        -5.1928    3.1928   53.3162 H       1  ZINC001231746020    0.1100
     33 H33        -1.8909    5.1589   51.4661 H       1  ZINC001231746020    0.1100
     34 H34        -1.0160    5.0812   53.5579 H       1  ZINC001231746020    0.1400
     35 H35        -0.9271    5.5761   55.2688 H       1  ZINC001231746020    0.1300
     36 H36        -0.9278    2.6397   54.5360 H       1  ZINC001231746020    0.0900
     37 H37         0.5715    3.5729   54.3951 H       1  ZINC001231746020    0.1100
     38 H38         0.7683    4.4265   57.7766 H       1  ZINC001231746020    0.3900
@<TRIPOS>BOND
     1     1     2    1
     2     1    23    1
     3     1    24    1
     4     1    25    1
     5     2     3    1
     6     2    20    1
     7     2     4    1
     8     4     5    1
     9     4    26    1
    10     4    27    1
    11     5     6    1
    12     5    28    1
    13     5    29    1
    14     6     7    1
    15     6     8    1
    16     6    18    1
    17     8     9    1
    18     8    30    1
    19     8    31    1
    20     9    17   ar
    21     9    10   ar
    22    10    11   ar
    23    10    32    1
    24    11    12    1
    25    11    13   ar
    26    13    14    1
    27    13    15   ar
    28    15    16    1
    29    15    17   ar
    30    17    33    1
    31    18    19    1
    32    18    34    1
    33    18    35    1
    34    19    20    1
    35    19    36    1
    36    19    37    1
    37    20    21    1
    38    20    22    1
    39    22    38    1
@<TRIPOS>SUBSTRUCTURE
     1 ZINC001231746020        1 TEMP              0 ****  ****    0 ROOT


##########                                Name:    ZINC000176150038
##########                DOCK_Rotatable_Bonds:                   4
##########                         Heavy_Atoms:                  23
##########                    Molecular_Weight:             333.712
##########                DOCK_Rotatable_Bonds:                   4
##########                       Formal_Charge:        -2.23517e-07
##########                     HBond_Acceptors:                  10
##########                        HBond_Donors:                   1
##########                         Heavy_Atoms:                  23
##########                          Grid_Score:          -24.964901
##########                     Grid_vdw_energy:          -24.938486
##########                      Grid_es_energy:           -0.026415
##########           Internal_energy_repulsive:           13.745330

@<TRIPOS>MOLECULE
ZINC000176150038
 32 34 1 0 0
SMALL
USER_CHARGES


@<TRIPOS>ATOM
      1 C1         -0.1889    5.5287   47.3824 C.3     1  ZINC000176150038   -0.0900
      2 C2         -0.3296    4.0658   47.0489 C.2     1  ZINC000176150038    0.2600
      3 N3         -0.0752    3.5059   45.8951 N.2     1  ZINC000176150038   -0.3300
      4 N4         -0.2979    2.2422   45.9463 N.2     1  ZINC000176150038   -0.0300
      5 N5         -0.7057    1.9092   47.1234 N.2     1  ZINC000176150038   -0.0700
      6 N6         -0.7363    3.0887   47.8879 N.pl3   1  ZINC000176150038   -0.3300
      7 C7         -1.1156    3.2233   49.2321 C.ar    1  ZINC000176150038    0.1400
      8 C8         -0.1572    3.1559   50.2340 C.ar    1  ZINC000176150038   -0.1000
      9 C9         -0.5288    3.2886   51.5586 C.ar    1  ZINC000176150038   -0.1100
     10 C10        -1.8563    3.4890   51.8901 C.ar    1  ZINC000176150038    0.1000
     11 F11        -2.2167    3.6189   53.1856 F       1  ZINC000176150038   -0.1200
     12 C12        -2.8209    3.5574   50.8895 C.ar    1  ZINC000176150038    0.1300
     13 N13        -4.1644    3.7602   51.2241 N.am    1  ZINC000176150038   -0.6500
     14 C14        -5.0154    2.7157   51.2578 C.2     1  ZINC000176150038    0.5700
     15 O15        -4.6162    1.5980   50.9977 O.2     1  ZINC000176150038   -0.4800
     16 C16        -6.4396    2.9306   51.6125 C.ar    1  ZINC000176150038    0.1400
     17 N17        -6.9366    4.1624   51.7015 N.ar    1  ZINC000176150038   -0.4800
     18 C18        -8.1991    4.3571   52.0154 C.ar    1  ZINC000176150038    0.3000
     19 N19        -9.0221    3.3544   52.2536 N.ar    1  ZINC000176150038   -0.4800
     20 C20        -8.6076    2.1011   52.1860 C.ar    1  ZINC000176150038    0.1700
     21 C21        -7.2836    1.8438   51.8529 C.ar    1  ZINC000176150038   -0.1000
     22 Cl22       -6.6908    0.2153   51.7506 Cl      1  ZINC000176150038    0.0100
     23 C23        -2.4480    3.4295   49.5597 C.ar    1  ZINC000176150038   -0.0800
     24 H24         0.8190    5.7223   47.7496 H       1  ZINC000176150038    0.1100
     25 H25        -0.3704    6.1244   46.4878 H       1  ZINC000176150038    0.1100
     26 H26        -0.9136    5.7974   48.1510 H       1  ZINC000176150038    0.0900
     27 H27         0.8803    2.9990   49.9781 H       1  ZINC000176150038    0.1500
     28 H28         0.2189    3.2353   52.3362 H       1  ZINC000176150038    0.1600
     29 H29        -4.4831    4.6525   51.4318 H       1  ZINC000176150038    0.4300
     30 H30        -8.5728    5.3684   52.0802 H       1  ZINC000176150038    0.2200
     31 H31        -9.2902    1.2877   52.3831 H       1  ZINC000176150038    0.1900
     32 H32        -3.1945    3.4822   48.7810 H       1  ZINC000176150038    0.1700
@<TRIPOS>BOND
     1     1     2    1
     2     1    24    1
     3     1    25    1
     4     1    26    1
     5     2     6    1
     6     2     3    2
     7     3     4    1
     8     4     5    2
     9     5     6    1
    10     6     7    1
    11     7    23   ar
    12     7     8   ar
    13     8     9   ar
    14     8    27    1
    15     9    10   ar
    16     9    28    1
    17    10    11    1
    18    10    12   ar
    19    12    13    1
    20    12    23   ar
    21    13    14   am
    22    13    29    1
    23    14    15    2
    24    14    16    1
    25    16    21   ar
    26    16    17   ar
    27    17    18   ar
    28    18    19   ar
    29    18    30    1
    30    19    20   ar
    31    20    21   ar
    32    20    31    1
    33    21    22    1
    34    23    32    1
@<TRIPOS>SUBSTRUCTURE
     1 ZINC000176150038        1 TEMP              0 ****  ****    0 ROOT


##########                                Name:    ZINC000330515179
##########                DOCK_Rotatable_Bonds:                   4
##########                         Heavy_Atoms:                  21
##########                    Molecular_Weight:             378.287
##########                DOCK_Rotatable_Bonds:                   4
##########                       Formal_Charge:           0.0200002
##########                     HBond_Acceptors:                   6
##########                        HBond_Donors:                   0
##########                         Heavy_Atoms:                  21
##########                          Grid_Score:          -24.865946
##########                     Grid_vdw_energy:          -24.953943
##########                      Grid_es_energy:            0.087998
##########           Internal_energy_repulsive:            7.253132

@<TRIPOS>MOLECULE
ZINC000330515179
 41 42 1 0 0
SMALL
USER_CHARGES


@<TRIPOS>ATOM
      1 C1         -6.6415    0.7551   51.1885 C.3     1  ZINC000330515179    0.0300
      2 O2         -5.4093    1.4786   51.2132 O.3     1  ZINC000330515179   -0.3800
      3 C3         -5.4803    2.7682   50.6018 C.3     1  ZINC000330515179    0.0700
      4 C4         -4.0804    3.3830   50.5445 C.3     1  ZINC000330515179    0.0800
      5 H5         -4.1486    4.4113   50.1891 H       1  ZINC000330515179    0.0800
      6 C6         -3.2020    2.5681   49.5882 C.3     1  ZINC000330515179    0.0900
      7 N7         -1.8198    3.0619   49.6931 N.am    1  ZINC000330515179   -1.0000
      8 S8         -0.9537    3.4652   48.3405 S.o2    1  ZINC000330515179    2.6900
      9 O9         -1.7508    3.0875   47.2264 O.2     1  ZINC000330515179   -0.9400
     10 O10        -0.4829    4.7901   48.5457 O.2     1  ZINC000330515179   -0.9500
     11 C11         0.4719    2.4303   48.3061 C.ar    1  ZINC000330515179   -0.6700
     12 C12         1.5087    2.6527   49.1930 C.ar    1  ZINC000330515179   -0.0100
     13 C13         2.6271    1.8408   49.1667 C.ar    1  ZINC000330515179   -0.1100
     14 C14         2.7087    0.8057   48.2527 C.ar    1  ZINC000330515179   -0.0400
     15 Br15        4.2381   -0.3057   48.2167 Br      1  ZINC000330515179   -0.0300
     16 C16         1.6710    0.5836   47.3655 C.ar    1  ZINC000330515179   -0.1100
     17 C17         0.5507    1.3927   47.3961 C.ar    1  ZINC000330515179   -0.0100
     18 C18        -1.2297    3.1861   51.0354 C.3     1  ZINC000330515179    0.1000
     19 C19        -2.2042    3.9709   51.9211 C.3     1  ZINC000330515179    0.1000
     20 C20        -1.7094    3.9498   53.3687 C.3     1  ZINC000330515179   -0.1400
     21 C21        -2.2884    5.4178   51.4309 C.3     1  ZINC000330515179   -0.1800
     22 O22        -3.4978    3.3665   51.8498 O.3     1  ZINC000330515179   -0.3500
     23 H23        -6.5045   -0.2124   51.6714 H       1  ZINC000330515179    0.0900
     24 H24        -7.4061    1.3215   51.7202 H       1  ZINC000330515179    0.0400
     25 H25        -6.9537    0.6045   50.1551 H       1  ZINC000330515179    0.0400
     26 H26        -5.8755    2.6698   49.5908 H       1  ZINC000330515179    0.0600
     27 H27        -6.1363    3.4123   51.1873 H       1  ZINC000330515179    0.0700
     28 H28        -3.2375    1.5145   49.8650 H       1  ZINC000330515179    0.0900
     29 H29        -3.5595    2.6918   48.5659 H       1  ZINC000330515179    0.1000
     30 H30         1.4451    3.4612   49.9063 H       1  ZINC000330515179    0.1500
     31 H31         3.4372    2.0148   49.8594 H       1  ZINC000330515179    0.1500
     32 H32         1.7342   -0.2245   46.6518 H       1  ZINC000330515179    0.1500
     33 H33        -0.2595    1.2193   46.7034 H       1  ZINC000330515179    0.1500
     34 H34        -1.0666    2.1947   51.4579 H       1  ZINC000330515179    0.0900
     35 H35        -0.2810    3.7191   50.9715 H       1  ZINC000330515179    0.1000
     36 H36        -0.7216    4.4075   53.4218 H       1  ZINC000330515179    0.0800
     37 H37        -2.4027    4.5080   53.9979 H       1  ZINC000330515179    0.0700
     38 H38        -1.6513    2.9188   53.7178 H       1  ZINC000330515179    0.0700
     39 H39        -2.6427    5.4323   50.4002 H       1  ZINC000330515179    0.0600
     40 H40        -2.9814    5.9752   52.0611 H       1  ZINC000330515179    0.0700
     41 H41        -1.3011    5.8769   51.4822 H       1  ZINC000330515179    0.0700
@<TRIPOS>BOND
     1     1     2    1
     2     1    23    1
     3     1    24    1
     4     1    25    1
     5     2     3    1
     6     3     4    1
     7     3    26    1
     8     3    27    1
     9     4     5    1
    10     4    22    1
    11     4     6    1
    12     6     7    1
    13     6    28    1
    14     6    29    1
    15     7     8   am
    16     7    18    1
    17     8     9    2
    18     8    10    2
    19     8    11    1
    20    11    17   ar
    21    11    12   ar
    22    12    13   ar
    23    12    30    1
    24    13    14   ar
    25    13    31    1
    26    14    15    1
    27    14    16   ar
    28    16    17   ar
    29    16    32    1
    30    17    33    1
    31    18    19    1
    32    18    34    1
    33    18    35    1
    34    19    20    1
    35    19    21    1
    36    19    22    1
    37    20    36    1
    38    20    37    1
    39    20    38    1
    40    21    39    1
    41    21    40    1
    42    21    41    1
@<TRIPOS>SUBSTRUCTURE
     1 ZINC000330515179        1 TEMP              0 ****  ****    0 ROOT


##########                                Name:    ZINC000540473851
##########                DOCK_Rotatable_Bonds:                   5
##########                         Heavy_Atoms:                  29
##########                    Molecular_Weight:             411.503
##########                DOCK_Rotatable_Bonds:                   5
##########                       Formal_Charge:           0.0200001
##########                     HBond_Acceptors:                   8
##########                        HBond_Donors:                   0
##########                         Heavy_Atoms:                  29
##########                          Grid_Score:          -24.830132
##########                     Grid_vdw_energy:          -24.113623
##########                      Grid_es_energy:           -0.716510
##########           Internal_energy_repulsive:           25.528923

@<TRIPOS>MOLECULE
ZINC000540473851
 51 54 1 0 0
SMALL
USER_CHARGES


@<TRIPOS>ATOM
      1 C1        -15.6323    2.4051   49.4944 C.3     1  ZINC000540473851   -0.0800
      2 C2        -14.9277    1.1885   48.9518 C.2     1  ZINC000540473851    0.1500
      3 C3        -13.6719    0.8144   49.3502 C.2     1  ZINC000540473851   -0.3100
      4 C4        -12.8334    1.5087   50.3350 C.2     1  ZINC000540473851    0.6000
      5 O5        -12.0605    2.3756   49.9725 O.2     1  ZINC000540473851   -0.5100
      6 N6        -12.9199    1.1859   51.6406 N.am    1  ZINC000540473851   -0.6100
      7 C7        -13.8432    0.1370   52.0994 C.3     1  ZINC000540473851    0.1000
      8 C8        -13.0621   -0.8517   52.9715 C.3     1  ZINC000540473851    0.0400
      9 N9        -12.3743   -0.1179   54.0422 N.3     1  ZINC000540473851   -0.5300
     10 C10       -11.7549   -1.0430   55.0006 C.3     1  ZINC000540473851    0.1200
     11 H11       -11.1976   -0.4750   55.7456 H       1  ZINC000540473851    0.0500
     12 C12       -10.8026   -1.9834   54.2591 C.3     1  ZINC000540473851   -0.1400
     13 C13       -12.8277   -1.8511   55.6840 C.ar    1  ZINC000540473851   -0.0500
     14 C14       -12.8709   -3.2225   55.5178 C.ar    1  ZINC000540473851   -0.1000
     15 C15       -13.8546   -3.9653   56.1442 C.ar    1  ZINC000540473851   -0.0900
     16 C16       -14.7958   -3.3371   56.9373 C.ar    1  ZINC000540473851   -0.1500
     17 C17       -14.7531   -1.9631   57.1049 C.ar    1  ZINC000540473851    0.1000
     18 F18       -15.6727   -1.3479   57.8801 F       1  ZINC000540473851   -0.1400
     19 C19       -13.7645   -1.2211   56.4815 C.ar    1  ZINC000540473851   -0.1500
     20 C20       -11.3812    0.8162   53.4952 C.3     1  ZINC000540473851    0.0400
     21 C21       -12.0890    1.8690   52.6438 C.3     1  ZINC000540473851    0.1200
     22 S22       -13.2434   -0.6500   48.4688 S.3     1  ZINC000540473851    0.2800
     23 C23       -14.7531   -0.6237   47.6678 C.2     1  ZINC000540473851    0.0800
     24 C24       -15.1951   -1.6216   46.6688 C.ar    1  ZINC000540473851    0.3800
     25 N25       -16.4085   -1.5173   46.1420 N.ar    1  ZINC000540473851   -0.5100
     26 C26       -16.8339   -2.3918   45.2475 C.ar    1  ZINC000540473851    0.1600
     27 C27       -15.9950   -3.4272   44.8610 C.ar    1  ZINC000540473851   -0.2100
     28 C28       -14.7326   -3.5067   45.4314 C.ar    1  ZINC000540473851    0.1500
     29 N29       -14.3668   -2.5965   46.3166 N.ar    1  ZINC000540473851   -0.4700
     30 N30       -15.4625    0.3942   48.0643 N.2     1  ZINC000540473851   -0.4300
     31 H31       -16.2066    2.1283   50.3786 H       1  ZINC000540473851    0.0900
     32 H32       -14.8956    3.1624   49.7621 H       1  ZINC000540473851    0.0800
     33 H33       -16.3045    2.8046   48.7349 H       1  ZINC000540473851    0.0800
     34 H34       -14.6460    0.5860   52.6843 H       1  ZINC000540473851    0.0900
     35 H35       -14.2612   -0.3850   51.2387 H       1  ZINC000540473851    0.0900
     36 H36       -13.7514   -1.5734   53.4100 H       1  ZINC000540473851    0.1000
     37 H37       -12.3277   -1.3751   52.3594 H       1  ZINC000540473851    0.0400
     38 H38       -11.3597   -2.5512   53.5140 H       1  ZINC000540473851    0.0700
     39 H39       -10.0266   -1.3988   53.7647 H       1  ZINC000540473851    0.0600
     40 H40       -10.3429   -2.6697   54.9702 H       1  ZINC000540473851    0.0600
     41 H41       -12.1360   -3.7144   54.8978 H       1  ZINC000540473851    0.1400
     42 H42       -13.8877   -5.0369   56.0133 H       1  ZINC000540473851    0.1300
     43 H43       -15.5644   -3.9174   57.4259 H       1  ZINC000540473851    0.1300
     44 H44       -13.7301   -0.1496   56.6118 H       1  ZINC000540473851    0.1300
     45 H45       -10.8515    1.3042   54.3133 H       1  ZINC000540473851    0.1000
     46 H46       -10.6702    0.2695   52.8757 H       1  ZINC000540473851    0.0400
     47 H47       -11.3489    2.4941   52.1442 H       1  ZINC000540473851    0.1000
     48 H48       -12.7250    2.4860   53.2785 H       1  ZINC000540473851    0.0800
     49 H49       -17.8227   -2.3020   44.8226 H       1  ZINC000540473851    0.1800
     50 H50       -16.3178   -4.1559   44.1320 H       1  ZINC000540473851    0.1600
     51 H51       -14.0557   -4.3005   45.1521 H       1  ZINC000540473851    0.1800
@<TRIPOS>BOND
     1     1     2    1
     2     1    31    1
     3     1    32    1
     4     1    33    1
     5     2    30    1
     6     2     3    2
     7     3     4    1
     8     3    22    1
     9     4     5    2
    10     4     6   am
    11     6    21    1
    12     6     7    1
    13     7     8    1
    14     7    34    1
    15     7    35    1
    16     8     9    1
    17     8    36    1
    18     8    37    1
    19     9    10    1
    20     9    20    1
    21    10    11    1
    22    10    12    1
    23    10    13    1
    24    12    38    1
    25    12    39    1
    26    12    40    1
    27    13    19   ar
    28    13    14   ar
    29    14    15   ar
    30    14    41    1
    31    15    16   ar
    32    15    42    1
    33    16    17   ar
    34    16    43    1
    35    17    18    1
    36    17    19   ar
    37    19    44    1
    38    20    21    1
    39    20    45    1
    40    20    46    1
    41    21    47    1
    42    21    48    1
    43    22    23    1
    44    23    24    1
    45    23    30    2
    46    24    29   ar
    47    24    25   ar
    48    25    26   ar
    49    26    27   ar
    50    26    49    1
    51    27    28   ar
    52    27    50    1
    53    28    29   ar
    54    28    51    1
@<TRIPOS>SUBSTRUCTURE
     1 ZINC000540473851        1 TEMP              0 ****  ****    0 ROOT


##########                                Name:    ZINC000098105561
##########                DOCK_Rotatable_Bonds:                   5
##########                         Heavy_Atoms:                  25
##########                    Molecular_Weight:             368.336
##########                DOCK_Rotatable_Bonds:                   5
##########                       Formal_Charge:         2.98023e-08
##########                     HBond_Acceptors:                   9
##########                        HBond_Donors:                   0
##########                         Heavy_Atoms:                  25
##########                          Grid_Score:          -24.816288
##########                     Grid_vdw_energy:          -24.375910
##########                      Grid_es_energy:           -0.440378
##########           Internal_energy_repulsive:           11.517967

@<TRIPOS>MOLECULE
ZINC000098105561
 36 38 1 0 0
SMALL
USER_CHARGES


@<TRIPOS>ATOM
      1 C1          3.3367    1.7774   44.8016 C.3     1  ZINC000098105561   -0.0800
      2 C2          2.6161    1.2344   46.0086 C.2     1  ZINC000098105561    0.0900
      3 C3          2.8287    0.0048   46.4832 C.2     1  ZINC000098105561   -0.2700
      4 S4          1.7929   -0.2244   47.8897 S.3     1  ZINC000098105561    0.1600
      5 C5          1.1727    1.3579   47.7036 C.2     1  ZINC000098105561    0.2500
      6 N6          0.2181    1.9395   48.5263 N.am    1  ZINC000098105561   -0.5200
      7 C7          0.3853    1.9035   49.9813 C.3     1  ZINC000098105561    0.0500
      8 C8          1.5667    2.7897   50.3809 C.3     1  ZINC000098105561    0.4400
      9 F9          1.6481    2.8574   51.7760 F       1  ZINC000098105561   -0.1700
     10 F10         2.7507    2.2464   49.8706 F       1  ZINC000098105561   -0.1700
     11 F11         1.3819    4.0755   49.8617 F       1  ZINC000098105561   -0.1700
     12 C12        -0.8626    2.5373   47.9867 C.2     1  ZINC000098105561    0.5800
     13 O13        -1.0013    2.5671   46.7799 O.2     1  ZINC000098105561   -0.4100
     14 C14        -1.8812    3.1580   48.8646 C.2     1  ZINC000098105561    0.0800
     15 C15        -1.7100    4.4475   49.2471 C.2     1  ZINC000098105561   -0.2000
     16 C16        -2.7194    5.0510   50.1335 C.2     1  ZINC000098105561    0.4200
     17 O17        -2.7628    6.2511   50.3399 O.2     1  ZINC000098105561   -0.4300
     18 C18        -3.6763    4.1148   50.7573 C.ar    1  ZINC000098105561   -0.2200
     19 C19        -4.5084    4.5123   51.8016 C.ar    1  ZINC000098105561   -0.0300
     20 C20        -5.3817    3.6026   52.3572 C.ar    1  ZINC000098105561   -0.1400
     21 C21        -5.4308    2.3004   51.8803 C.ar    1  ZINC000098105561   -0.0500
     22 C22        -4.6143    1.8961   50.8463 C.ar    1  ZINC000098105561   -0.1400
     23 C23        -3.7275    2.7978   50.2673 C.ar    1  ZINC000098105561    0.1400
     24 O24        -2.9360    2.4231   49.2429 O.3     1  ZINC000098105561   -0.2300
     25 N25         1.7281    1.9376   46.6852 N.2     1  ZINC000098105561   -0.4600
     26 H26         4.2573    2.2677   45.1182 H       1  ZINC000098105561    0.0800
     27 H27         3.5759    0.9590   44.1226 H       1  ZINC000098105561    0.0800
     28 H28         2.6982    2.4984   44.2911 H       1  ZINC000098105561    0.0800
     29 H29         3.5154   -0.7224   46.0758 H       1  ZINC000098105561    0.1900
     30 H30        -0.5225    2.2704   50.4604 H       1  ZINC000098105561    0.1700
     31 H31         0.5756    0.8787   50.3000 H       1  ZINC000098105561    0.1400
     32 H32        -0.8561    5.0168   48.9111 H       1  ZINC000098105561    0.1800
     33 H33        -4.4691    5.5255   52.1732 H       1  ZINC000098105561    0.1400
     34 H34        -6.0299    3.9040   53.1668 H       1  ZINC000098105561    0.1400
     35 H35        -6.1170    1.5949   52.3251 H       1  ZINC000098105561    0.1400
     36 H36        -4.6631    0.8794   50.4853 H       1  ZINC000098105561    0.1400
@<TRIPOS>BOND
     1     1     2    1
     2     1    26    1
     3     1    27    1
     4     1    28    1
     5     2    25    1
     6     2     3    2
     7     3     4    1
     8     3    29    1
     9     4     5    1
    10     5     6    1
    11     5    25    2
    12     6     7    1
    13     6    12   am
    14     7     8    1
    15     7    30    1
    16     7    31    1
    17     8     9    1
    18     8    10    1
    19     8    11    1
    20    12    13    2
    21    12    14    1
    22    14    24    1
    23    14    15    2
    24    15    16    1
    25    15    32    1
    26    16    17    2
    27    16    18    1
    28    18    23   ar
    29    18    19   ar
    30    19    20   ar
    31    19    33    1
    32    20    21   ar
    33    20    34    1
    34    21    22   ar
    35    21    35    1
    36    22    23   ar
    37    22    36    1
    38    23    24    1
@<TRIPOS>SUBSTRUCTURE
     1 ZINC000098105561        1 TEMP              0 ****  ****    0 ROOT


##########                                Name:    ZINC000836820897
##########                DOCK_Rotatable_Bonds:                   5
##########                         Heavy_Atoms:                  22
##########                    Molecular_Weight:             330.355
##########                DOCK_Rotatable_Bonds:                   5
##########                       Formal_Charge:          -0.0200003
##########                     HBond_Acceptors:                   8
##########                        HBond_Donors:                   1
##########                         Heavy_Atoms:                  22
##########                          Grid_Score:          -24.725365
##########                     Grid_vdw_energy:          -24.647219
##########                      Grid_es_energy:           -0.078147
##########           Internal_energy_repulsive:            9.140184

@<TRIPOS>MOLECULE
ZINC000836820897
 38 40 1 0 0
SMALL
USER_CHARGES


@<TRIPOS>ATOM
      1 O1         -1.8175    1.7469   46.5609 O.2     1  ZINC000836820897   -0.5200
      2 C2         -1.0933    2.2337   47.4074 C.2     1  ZINC000836820897    0.5800
      3 C3         -1.6011    3.3087   48.2843 C.ar    1  ZINC000836820897   -0.1600
      4 C4         -1.0946    4.6048   48.1691 C.ar    1  ZINC000836820897   -0.0100
      5 C5         -1.5724    5.6042   48.9896 C.ar    1  ZINC000836820897   -0.1700
      6 C6         -2.5538    5.3244   49.9280 C.ar    1  ZINC000836820897    0.2200
      7 F7         -3.0185    6.3076   50.7296 F       1  ZINC000836820897   -0.1100
      8 C8         -3.0606    4.0389   50.0463 C.ar    1  ZINC000836820897   -0.7200
      9 S9         -4.3086    3.6922   51.2408 S.o2    1  ZINC000836820897    2.7000
     10 O10        -5.0306    4.9015   51.4292 O.2     1  ZINC000836820897   -0.9400
     11 O11        -4.9222    2.4753   50.8385 O.2     1  ZINC000836820897   -0.9400
     12 N12        -3.5413    3.3776   52.6742 N.am    1  ZINC000836820897   -1.0800
     13 C13        -2.6882    4.3983   53.2878 C.3     1  ZINC000836820897    0.0700
     14 C14        -1.6796    3.9359   54.3414 C.3     1  ZINC000836820897   -0.1800
     15 C15        -1.1952    4.3644   52.9549 C.3     1  ZINC000836820897   -0.1900
     16 C16        -2.5935    3.0333   49.2277 C.ar    1  ZINC000836820897    0.0600
     17 N17         0.1710    1.7889   47.5495 N.am    1  ZINC000836820897   -0.6200
     18 C18         1.1456    2.2780   48.5356 C.3     1  ZINC000836820897    0.0900
     19 C19         2.4408    1.4611   48.3438 C.3     1  ZINC000836820897   -0.1600
     20 C20         1.9382    0.1730   47.6398 C.3     1  ZINC000836820897    0.0800
     21 H21         1.5467   -0.5409   48.3645 H       1  ZINC000836820897    0.1100
     22 F22         2.9519   -0.4048   46.8680 F       1  ZINC000836820897   -0.1900
     23 C23         0.8037    0.7270   46.7461 C.3     1  ZINC000836820897    0.0800
     24 H24        -0.3299    4.8238   47.4386 H       1  ZINC000836820897    0.1500
     25 H25        -1.1811    6.6071   48.9016 H       1  ZINC000836820897    0.1600
     26 H26        -3.6567    2.5174   53.1075 H       1  ZINC000836820897    0.4200
     27 H27        -3.1505    5.3753   53.4278 H       1  ZINC000836820897    0.1400
     28 H28        -1.4785    4.6087   55.1750 H       1  ZINC000836820897    0.1100
     29 H29        -1.6511    2.8723   54.5781 H       1  ZINC000836820897    0.1000
     30 H30        -0.8477    3.5828   52.2793 H       1  ZINC000836820897    0.1000
     31 H31        -0.6753    5.3193   52.8763 H       1  ZINC000836820897    0.1000
     32 H32        -2.9890    2.0327   49.3205 H       1  ZINC000836820897    0.1600
     33 H33         1.3459    3.3358   48.3657 H       1  ZINC000836820897    0.0800
     34 H34         0.7593    2.1290   49.5440 H       1  ZINC000836820897    0.0800
     35 H35         3.1449    1.9981   47.7083 H       1  ZINC000836820897    0.0900
     36 H36         2.8928    1.2230   49.3066 H       1  ZINC000836820897    0.1000
     37 H37         0.0841   -0.0587   46.5157 H       1  ZINC000836820897    0.1000
     38 H38         1.2147    1.1472   45.8282 H       1  ZINC000836820897    0.0900
@<TRIPOS>BOND
     1     1     2    2
     2     2     3    1
     3     2    17   am
     4     3    16   ar
     5     3     4   ar
     6     4     5   ar
     7     4    24    1
     8     5     6   ar
     9     5    25    1
    10     6     7    1
    11     6     8   ar
    12     8     9    1
    13     8    16   ar
    14     9    10    2
    15     9    11    2
    16     9    12   am
    17    12    13    1
    18    12    26    1
    19    13    15    1
    20    13    14    1
    21    13    27    1
    22    14    15    1
    23    14    28    1
    24    14    29    1
    25    15    30    1
    26    15    31    1
    27    16    32    1
    28    17    23    1
    29    17    18    1
    30    18    19    1
    31    18    33    1
    32    18    34    1
    33    19    20    1
    34    19    35    1
    35    19    36    1
    36    20    21    1
    37    20    22    1
    38    20    23    1
    39    23    37    1
    40    23    38    1
@<TRIPOS>SUBSTRUCTURE
     1 ZINC000836820897        1 TEMP              0 ****  ****    0 ROOT


##########                                Name:    ZINC000879023512
##########                DOCK_Rotatable_Bonds:                   4
##########                         Heavy_Atoms:                  20
##########                    Molecular_Weight:             346.156
##########                DOCK_Rotatable_Bonds:                   4
##########                       Formal_Charge:        -5.96046e-08
##########                     HBond_Acceptors:                   7
##########                        HBond_Donors:                   1
##########                         Heavy_Atoms:                  20
##########                          Grid_Score:          -24.644224
##########                     Grid_vdw_energy:          -24.410913
##########                      Grid_es_energy:           -0.233310
##########           Internal_energy_repulsive:            3.663976

@<TRIPOS>MOLECULE
ZINC000879023512
 33 34 1 0 0
SMALL
USER_CHARGES


@<TRIPOS>ATOM
      1 O1         -4.6166    1.2074   50.8127 O.2     1  ZINC000879023512   -0.5600
      2 C2         -4.8217    2.3157   51.2688 C.2     1  ZINC000879023512    0.7200
      3 N3         -3.8645    3.2619   51.1963 N.am    1  ZINC000879023512   -0.6800
      4 C4         -2.6325    2.9669   50.6009 C.ar    1  ZINC000879023512    0.1800
      5 C5         -1.4601    3.0797   51.3362 C.ar    1  ZINC000879023512   -0.0900
      6 C6         -0.2456    2.7880   50.7463 C.ar    1  ZINC000879023512   -0.0700
      7 C7         -0.1966    2.3843   49.4241 C.ar    1  ZINC000879023512   -0.0700
      8 Br8         1.4678    1.9858   48.6199 Br      1  ZINC000879023512    0.0200
      9 C9         -1.3636    2.2710   48.6890 C.ar    1  ZINC000879023512    0.0000
     10 N10        -1.3074    1.8387   47.2745 N.pl3   1  ZINC000879023512    0.0200
     11 O11        -2.3341    1.7389   46.6269 O.2     1  ZINC000879023512   -0.1500
     12 O12        -0.2344    1.5829   46.7580 O.2     1  ZINC000879023512   -0.1300
     13 C13        -2.5810    2.5554   49.2755 C.ar    1  ZINC000879023512   -0.0500
     14 N14        -6.0079    2.5997   51.8420 N.am    1  ZINC000879023512   -0.6300
     15 C15        -6.3920    3.8960   52.4197 C.3     1  ZINC000879023512    0.0900
     16 C16        -7.8221    3.7428   52.9788 C.3     1  ZINC000879023512   -0.1200
     17 C17        -7.9502    2.2111   53.1906 C.3     1  ZINC000879023512   -0.1400
     18 H18        -7.5035    1.9089   54.1379 H       1  ZINC000879023512    0.1000
     19 C19        -9.4120    1.7667   53.1105 C.3     1  ZINC000879023512    0.0700
     20 F20        -9.4904    0.3837   53.3066 F       1  ZINC000879023512   -0.2100
     21 C21        -7.1377    1.6640   51.9877 C.3     1  ZINC000879023512    0.1300
     22 H22        -4.0296    4.1472   51.5565 H       1  ZINC000879023512    0.4200
     23 H23        -1.4977    3.3956   52.3683 H       1  ZINC000879023512    0.1600
     24 H24         0.6666    2.8756   51.3179 H       1  ZINC000879023512    0.1600
     25 H25        -3.4914    2.4665   48.7015 H       1  ZINC000879023512    0.1800
     26 H26        -5.7059    4.1612   53.2241 H       1  ZINC000879023512    0.0700
     27 H27        -6.3762    4.6652   51.6476 H       1  ZINC000879023512    0.0700
     28 H28        -7.9248    4.2729   53.9257 H       1  ZINC000879023512    0.0900
     29 H29        -8.5584    4.0951   52.2566 H       1  ZINC000879023512    0.0900
     30 H30        -9.9894    2.2763   53.8819 H       1  ZINC000879023512    0.0800
     31 H31        -9.8150    2.0180   52.1294 H       1  ZINC000879023512    0.0800
     32 H32        -7.7512    1.6583   51.0867 H       1  ZINC000879023512    0.0800
     33 H33        -6.7696    0.6608   52.2033 H       1  ZINC000879023512    0.0900
@<TRIPOS>BOND
     1     1     2    2
     2     2     3   am
     3     2    14   am
     4     3     4    1
     5     3    22    1
     6     4    13   ar
     7     4     5   ar
     8     5     6   ar
     9     5    23    1
    10     6     7   ar
    11     6    24    1
    12     7     8    1
    13     7     9   ar
    14     9    10    1
    15     9    13   ar
    16    10    11    2
    17    10    12    2
    18    13    25    1
    19    14    21    1
    20    14    15    1
    21    15    16    1
    22    15    26    1
    23    15    27    1
    24    16    17    1
    25    16    28    1
    26    16    29    1
    27    17    18    1
    28    17    19    1
    29    17    21    1
    30    19    20    1
    31    19    30    1
    32    19    31    1
    33    21    32    1
    34    21    33    1
@<TRIPOS>SUBSTRUCTURE
     1 ZINC000879023512        1 TEMP              0 ****  ****    0 ROOT


##########                                Name:    ZINC000506388363
##########                DOCK_Rotatable_Bonds:                   5
##########                         Heavy_Atoms:                  29
##########                    Molecular_Weight:             416.858
##########                DOCK_Rotatable_Bonds:                   5
##########                       Formal_Charge:         7.07805e-07
##########                     HBond_Acceptors:                   8
##########                        HBond_Donors:                   1
##########                         Heavy_Atoms:                  29
##########                          Grid_Score:          -24.602924
##########                     Grid_vdw_energy:          -23.780830
##########                      Grid_es_energy:           -0.822095
##########           Internal_energy_repulsive:           10.747299

@<TRIPOS>MOLECULE
ZINC000506388363
 48 51 1 0 0
SMALL
USER_CHARGES


@<TRIPOS>ATOM
      1 O1        -11.7233    3.1535   64.3224 O.2     1  ZINC000506388363   -0.5300
      2 C2        -10.8104    2.5417   63.8030 C.2     1  ZINC000506388363    0.5600
      3 C3         -9.6487    2.1182   64.6138 C.ar    1  ZINC000506388363   -0.1200
      4 C4         -8.3860    2.6575   64.3641 C.ar    1  ZINC000506388363   -0.0900
      5 C5         -7.3057    2.2589   65.1243 C.ar    1  ZINC000506388363   -0.1100
      6 C6         -7.4715    1.3262   66.1321 C.ar    1  ZINC000506388363   -0.0900
      7 C7         -8.7215    0.7867   66.3855 C.ar    1  ZINC000506388363   -0.0400
      8 Cl8        -8.9197   -0.3829   67.6530 Cl      1  ZINC000506388363   -0.0600
      9 C9         -9.8115    1.1816   65.6358 C.ar    1  ZINC000506388363   -0.0600
     10 N10       -10.8596    2.2444   62.4894 N.am    1  ZINC000506388363   -0.6100
     11 C11        -9.7715    1.4944   61.8438 C.3     1  ZINC000506388363    0.1000
     12 C12       -10.3811    0.3175   61.0746 C.3     1  ZINC000506388363    0.0400
     13 N13       -11.4176    0.8176   60.1617 N.3     1  ZINC000506388363   -0.5300
     14 C14       -11.9068   -0.2534   59.2833 C.3     1  ZINC000506388363    0.1200
     15 C15       -11.4807    0.0263   57.8651 C.2     1  ZINC000506388363   -0.2100
     16 C16       -11.2135    1.2419   57.3397 C.2     1  ZINC000506388363    0.0600
     17 N17       -10.8670    1.0699   56.0460 N.pl3   1  ZINC000506388363   -0.4700
     18 N18       -10.9211   -0.2999   55.7584 N.2     1  ZINC000506388363   -0.2700
     19 C19       -11.2846   -0.9338   56.8532 C.2     1  ZINC000506388363    0.1300
     20 C20       -11.4662   -2.3998   56.9938 C.ar    1  ZINC000506388363   -0.0700
     21 C21       -10.5589   -3.1495   57.7428 C.ar    1  ZINC000506388363    0.1500
     22 F22        -9.5120   -2.5423   58.3433 F       1  ZINC000506388363   -0.1200
     23 C23       -10.7339   -4.5151   57.8697 C.ar    1  ZINC000506388363   -0.1600
     24 C24       -11.8052   -5.1381   57.2562 C.ar    1  ZINC000506388363   -0.0500
     25 C25       -12.7082   -4.4007   56.5122 C.ar    1  ZINC000506388363   -0.1600
     26 C26       -12.5480   -3.0336   56.3821 C.ar    1  ZINC000506388363    0.1600
     27 F27       -13.4309   -2.3146   55.6550 F       1  ZINC000506388363   -0.1200
     28 C28       -12.5246    1.4387   60.9013 C.3     1  ZINC000506388363    0.0400
     29 C29       -12.0058    2.6561   61.6647 C.3     1  ZINC000506388363    0.1200
     30 H30        -8.2547    3.3854   63.5770 H       1  ZINC000506388363    0.1400
     31 H31        -6.3282    2.6759   64.9315 H       1  ZINC000506388363    0.1400
     32 H32        -6.6224    1.0171   66.7236 H       1  ZINC000506388363    0.1400
     33 H33       -10.7861    0.7608   65.8341 H       1  ZINC000506388363    0.1400
     34 H34        -9.2374    2.1463   61.1525 H       1  ZINC000506388363    0.0800
     35 H35        -9.0848    1.1195   62.6027 H       1  ZINC000506388363    0.1000
     36 H36        -9.6022   -0.1843   60.5006 H       1  ZINC000506388363    0.0900
     37 H37       -10.8252   -0.3861   61.7786 H       1  ZINC000506388363    0.0400
     38 H38       -11.4898   -1.2072   59.6065 H       1  ZINC000506388363    0.1000
     39 H39       -12.9947   -0.2965   59.3341 H       1  ZINC000506388363    0.0400
     40 H40       -11.2677    2.1854   57.8625 H       1  ZINC000506388363    0.1800
     41 H41       -10.6234    1.7729   55.4237 H       1  ZINC000506388363    0.4400
     42 H42       -10.0320   -5.0967   58.4491 H       1  ZINC000506388363    0.1500
     43 H43       -11.9372   -6.2051   57.3582 H       1  ZINC000506388363    0.1500
     44 H44       -13.5426   -4.8933   56.0353 H       1  ZINC000506388363    0.1500
     45 H45       -13.3002    1.7498   60.2015 H       1  ZINC000506388363    0.0900
     46 H46       -12.9388    0.7193   61.6077 H       1  ZINC000506388363    0.0400
     47 H47       -12.7953    3.0515   62.3036 H       1  ZINC000506388363    0.1000
     48 H48       -11.6847    3.4217   60.9583 H       1  ZINC000506388363    0.0800
@<TRIPOS>BOND
     1     1     2    2
     2     2     3    1
     3     2    10   am
     4     3     9   ar
     5     3     4   ar
     6     4     5   ar
     7     4    30    1
     8     5     6   ar
     9     5    31    1
    10     6     7   ar
    11     6    32    1
    12     7     8    1
    13     7     9   ar
    14     9    33    1
    15    10    29    1
    16    10    11    1
    17    11    12    1
    18    11    34    1
    19    11    35    1
    20    12    13    1
    21    12    36    1
    22    12    37    1
    23    13    14    1
    24    13    28    1
    25    14    15    1
    26    14    38    1
    27    14    39    1
    28    15    19    1
    29    15    16    2
    30    16    17    1
    31    16    40    1
    32    17    18    1
    33    17    41    1
    34    18    19    2
    35    19    20    1
    36    20    26   ar
    37    20    21   ar
    38    21    22    1
    39    21    23   ar
    40    23    24   ar
    41    23    42    1
    42    24    25   ar
    43    24    43    1
    44    25    26   ar
    45    25    44    1
    46    26    27    1
    47    28    29    1
    48    28    45    1
    49    28    46    1
    50    29    47    1
    51    29    48    1
@<TRIPOS>SUBSTRUCTURE
     1 ZINC000506388363        1 TEMP              0 ****  ****    0 ROOT


##########                                Name:    ZINC001018118384
##########                DOCK_Rotatable_Bonds:                   5
##########                         Heavy_Atoms:                  25
##########                    Molecular_Weight:             347.374
##########                DOCK_Rotatable_Bonds:                   5
##########                       Formal_Charge:           0.0299997
##########                     HBond_Acceptors:                   9
##########                        HBond_Donors:                   2
##########                         Heavy_Atoms:                  25
##########                          Grid_Score:          -24.585932
##########                     Grid_vdw_energy:          -23.963757
##########                      Grid_es_energy:           -0.622175
##########           Internal_energy_repulsive:           99.287689

@<TRIPOS>MOLECULE
ZINC001018118384
 46 48 1 0 0
SMALL
USER_CHARGES


@<TRIPOS>ATOM
      1 C1         -6.5350    1.6575   50.0878 C.3     1  ZINC001018118384   -0.0700
      2 C2         -5.1645    2.1295   50.5002 C.2     1  ZINC001018118384    0.2200
      3 N3         -4.1585    2.3235   49.6973 N.2     1  ZINC001018118384   -0.4600
      4 C4         -3.0924    2.7466   50.4235 C.2     1  ZINC001018118384   -0.0700
      5 C5         -1.7570    3.0790   49.8975 C.2     1  ZINC001018118384    0.6100
      6 O6         -1.0404    2.2001   49.4579 O.2     1  ZINC001018118384   -0.5400
      7 N7         -1.3294    4.3571   49.9036 N.am    1  ZINC001018118384   -0.5900
      8 C8         -2.1811    5.4290   50.4369 C.3     1  ZINC001018118384    0.0700
      9 C9         -1.3916    6.2056   51.4953 C.3     1  ZINC001018118384    0.1300
     10 H10        -1.9769    7.0620   51.8300 H       1  ZINC001018118384    0.1100
     11 N11        -1.1102    5.3300   52.6356 N.am    1  ZINC001018118384   -0.7000
     12 C12        -1.7946    5.4816   53.7867 C.2     1  ZINC001018118384    0.6000
     13 O13        -2.6438    6.3455   53.8793 O.2     1  ZINC001018118384   -0.4900
     14 C14        -1.5112    4.5946   54.9398 C.2     1  ZINC001018118384    0.0300
     15 C15        -2.2481    4.4927   56.0820 C.2     1  ZINC001018118384   -0.2300
     16 C16        -1.5566    3.5157   56.8521 C.2     1  ZINC001018118384    0.4800
     17 O17        -1.8587    3.1013   57.9589 O.2     1  ZINC001018118384   -0.5200
     18 N18        -0.4989    3.1428   56.1040 N.am    1  ZINC001018118384   -0.4500
     19 C19         0.4955    2.1459   56.5086 C.3     1  ZINC001018118384    0.1100
     20 O20        -0.4847    3.7379   55.0514 O.3     1  ZINC001018118384    0.0000
     21 C21        -0.0744    6.6932   50.8876 C.3     1  ZINC001018118384   -0.1300
     22 C22         0.7624    5.4898   50.4471 C.3     1  ZINC001018118384   -0.1300
     23 C23        -0.0003    4.7043   49.3825 C.3     1  ZINC001018118384    0.1400
     24 H24        -0.1134    5.3165   48.4877 H       1  ZINC001018118384    0.0700
     25 C25         0.7698    3.4282   49.0367 C.3     1  ZINC001018118384   -0.1400
     26 C26        -3.4830    2.8082   51.7293 C.2     1  ZINC001018118384    0.0400
     27 N27        -4.7814    2.4267   51.7693 N.pl3   1  ZINC001018118384   -0.5600
     28 H28        -7.1591    2.5186   49.8487 H       1  ZINC001018118384    0.0900
     29 H29        -6.4497    1.0160   49.2107 H       1  ZINC001018118384    0.1000
     30 H30        -6.9874    1.0967   50.9056 H       1  ZINC001018118384    0.0800
     31 H31        -2.4700    6.1020   49.6297 H       1  ZINC001018118384    0.0800
     32 H32        -3.0724    4.9957   50.8908 H       1  ZINC001018118384    0.1500
     33 H33        -0.4314    4.6410   52.5622 H       1  ZINC001018118384    0.4100
     34 H34        -3.1483    5.0296   56.3425 H       1  ZINC001018118384    0.1900
     35 H35         0.1755    1.1582   56.1770 H       1  ZINC001018118384    0.0800
     36 H36         1.4572    2.3874   56.0558 H       1  ZINC001018118384    0.0900
     37 H37         0.5937    2.1507   57.5941 H       1  ZINC001018118384    0.1100
     38 H38        -0.2845    7.3247   50.0245 H       1  ZINC001018118384    0.0900
     39 H39         0.4782    7.2671   51.6314 H       1  ZINC001018118384    0.0800
     40 H40         1.7103    5.8369   50.0358 H       1  ZINC001018118384    0.0800
     41 H41         0.9521    4.8450   51.3051 H       1  ZINC001018118384    0.0600
     42 H42         0.8948    2.8246   49.9356 H       1  ZINC001018118384    0.0700
     43 H43         0.2140    2.8592   48.2914 H       1  ZINC001018118384    0.0800
     44 H44         1.7489    3.6917   48.6368 H       1  ZINC001018118384    0.0400
     45 H45        -2.8744    3.1083   52.5694 H       1  ZINC001018118384    0.1900
     46 H46        -5.3364    2.3694   52.5626 H       1  ZINC001018118384    0.4300
@<TRIPOS>BOND
     1     1     2    1
     2     1    28    1
     3     1    29    1
     4     1    30    1
     5     2    27    1
     6     2     3    2
     7     3     4    1
     8     4     5    1
     9     4    26    2
    10     5     6    2
    11     5     7   am
    12     7    23    1
    13     7     8    1
    14     8     9    1
    15     8    31    1
    16     8    32    1
    17     9    10    1
    18     9    11    1
    19     9    21    1
    20    11    12   am
    21    11    33    1
    22    12    13    2
    23    12    14    1
    24    14    20    1
    25    14    15    2
    26    15    16    1
    27    15    34    1
    28    16    17    2
    29    16    18   am
    30    18    19    1
    31    18    20    1
    32    19    35    1
    33    19    36    1
    34    19    37    1
    35    21    22    1
    36    21    38    1
    37    21    39    1
    38    22    23    1
    39    22    40    1
    40    22    41    1
    41    23    24    1
    42    23    25    1
    43    25    42    1
    44    25    43    1
    45    25    44    1
    46    26    27    1
    47    26    45    1
    48    27    46    1
@<TRIPOS>SUBSTRUCTURE
     1 ZINC001018118384        1 TEMP              0 ****  ****    0 ROOT


##########                                Name:    ZINC000543429378
##########                DOCK_Rotatable_Bonds:                   6
##########                         Heavy_Atoms:                  29
##########                    Molecular_Weight:             406.408
##########                DOCK_Rotatable_Bonds:                   6
##########                       Formal_Charge:           0.0100003
##########                     HBond_Acceptors:                   9
##########                        HBond_Donors:                   1
##########                         Heavy_Atoms:                  29
##########                          Grid_Score:          -24.571880
##########                     Grid_vdw_energy:          -23.572634
##########                      Grid_es_energy:           -0.999246
##########           Internal_energy_repulsive:           32.432133

@<TRIPOS>MOLECULE
ZINC000543429378
 50 53 1 0 0
SMALL
USER_CHARGES


@<TRIPOS>ATOM
      1 O1        -14.2755   -1.1010   57.1393 O.2     1  ZINC000543429378   -0.5100
      2 C2        -13.1988   -1.0760   57.6970 C.2     1  ZINC000543429378    0.5200
      3 N3        -13.0591   -1.6297   58.9179 N.am    1  ZINC000543429378   -0.6600
      4 C4        -14.1576   -2.2285   59.5443 C.ar    1  ZINC000543429378    0.1900
      5 C5        -14.9173   -3.1712   58.8639 C.ar    1  ZINC000543429378   -0.1600
      6 C6        -16.0018   -3.7628   59.4828 C.ar    1  ZINC000543429378   -0.0600
      7 C7        -16.3336   -3.4183   60.7790 C.ar    1  ZINC000543429378   -0.2100
      8 C8        -15.5778   -2.4767   61.4638 C.ar    1  ZINC000543429378    0.1300
      9 O9        -15.9053   -2.1388   62.7387 O.3     1  ZINC000543429378   -0.3100
     10 C10       -15.8958   -0.7472   63.0639 C.3     1  ZINC000543429378    0.6000
     11 F11       -16.3848   -0.0115   61.9790 F       1  ZINC000543429378   -0.1600
     12 F12       -16.7065   -0.5241   64.1820 F       1  ZINC000543429378   -0.1300
     13 F13       -14.5870   -0.3439   63.3489 F       1  ZINC000543429378   -0.1600
     14 C14       -14.4860   -1.8852   60.8485 C.ar    1  ZINC000543429378   -0.1300
     15 C15       -12.0156   -0.4311   57.0223 C.3     1  ZINC000543429378    0.0700
     16 H16       -11.2700   -0.1524   57.7669 H       1  ZINC000543429378    0.1200
     17 C17       -12.4754    0.8276   56.2367 C.3     1  ZINC000543429378   -0.1200
     18 C18       -11.5981    0.7516   54.9775 C.3     1  ZINC000543429378   -0.1000
     19 H19       -10.5863    1.1007   55.1830 H       1  ZINC000543429378    0.0900
     20 C20       -12.1701    1.4344   53.7468 C.3     1  ZINC000543429378   -0.1100
     21 C21       -11.2176    1.1397   52.5770 C.3     1  ZINC000543429378   -0.1200
     22 C22       -11.0587   -0.3606   52.3496 C.3     1  ZINC000543429378   -0.1100
     23 C23       -10.6098   -1.0776   53.6338 C.3     1  ZINC000543429378   -0.0900
     24 C24       -11.6231   -0.7786   54.7141 C.3     1  ZINC000543429378    0.0700
     25 H25       -12.6180   -1.0455   54.3575 H       1  ZINC000543429378    0.0900
     26 N26       -11.4205   -1.3706   56.0363 N.3     1  ZINC000543429378   -0.4300
     27 C27       -12.0258   -2.6124   56.1220 C.ar    1  ZINC000543429378    0.5000
     28 N28       -11.5617   -3.4995   56.9898 N.ar    1  ZINC000543429378   -0.5300
     29 C29       -12.1175   -4.6951   57.0972 C.ar    1  ZINC000543429378    0.1800
     30 C30       -13.1970   -5.0139   56.2884 C.ar    1  ZINC000543429378   -0.2500
     31 C31       -13.6569   -4.0625   55.3916 C.ar    1  ZINC000543429378    0.1800
     32 N32       -13.0589   -2.8838   55.3380 N.ar    1  ZINC000543429378   -0.5300
     33 H33       -12.1970   -1.6131   59.3621 H       1  ZINC000543429378    0.4200
     34 H34       -14.6606   -3.4417   57.8503 H       1  ZINC000543429378    0.1400
     35 H35       -16.5915   -4.4956   58.9521 H       1  ZINC000543429378    0.1400
     36 H36       -17.1822   -3.8819   61.2599 H       1  ZINC000543429378    0.1400
     37 H37       -13.8967   -1.1525   61.3798 H       1  ZINC000543429378    0.1500
     38 H38       -13.5326    0.7621   55.9796 H       1  ZINC000543429378    0.0800
     39 H39       -12.2685    1.7368   56.8014 H       1  ZINC000543429378    0.0900
     40 H40       -13.1606    1.0355   53.5280 H       1  ZINC000543429378    0.0700
     41 H41       -12.2308    2.5098   53.9138 H       1  ZINC000543429378    0.0700
     42 H42       -11.6143    1.5973   51.6707 H       1  ZINC000543429378    0.0600
     43 H43       -10.2412    1.5723   52.7950 H       1  ZINC000543429378    0.0600
     44 H44       -12.0130   -0.7751   52.0246 H       1  ZINC000543429378    0.0600
     45 H45       -10.3152   -0.5264   51.5700 H       1  ZINC000543429378    0.0700
     46 H46       -10.5596   -2.1525   53.4599 H       1  ZINC000543429378    0.0700
     47 H47        -9.6334   -0.7055   53.9442 H       1  ZINC000543429378    0.0700
     48 H48       -11.7346   -5.4141   57.8062 H       1  ZINC000543429378    0.1600
     49 H49       -13.6693   -5.9829   56.3553 H       1  ZINC000543429378    0.1400
     50 H50       -14.4958   -4.2794   54.7468 H       1  ZINC000543429378    0.1600
@<TRIPOS>BOND
     1     1     2    2
     2     2     3   am
     3     2    15    1
     4     3     4    1
     5     3    33    1
     6     4    14   ar
     7     4     5   ar
     8     5     6   ar
     9     5    34    1
    10     6     7   ar
    11     6    35    1
    12     7     8   ar
    13     7    36    1
    14     8     9    1
    15     8    14   ar
    16     9    10    1
    17    10    11    1
    18    10    12    1
    19    10    13    1
    20    14    37    1
    21    15    16    1
    22    15    26    1
    23    15    17    1
    24    17    18    1
    25    17    38    1
    26    17    39    1
    27    18    19    1
    28    18    24    1
    29    18    20    1
    30    20    21    1
    31    20    40    1
    32    20    41    1
    33    21    22    1
    34    21    42    1
    35    21    43    1
    36    22    23    1
    37    22    44    1
    38    22    45    1
    39    23    24    1
    40    23    46    1
    41    23    47    1
    42    24    25    1
    43    24    26    1
    44    26    27    1
    45    27    32   ar
    46    27    28   ar
    47    28    29   ar
    48    29    30   ar
    49    29    48    1
    50    30    31   ar
    51    30    49    1
    52    31    32   ar
    53    31    50    1
@<TRIPOS>SUBSTRUCTURE
     1 ZINC000543429378        1 TEMP              0 ****  ****    0 ROOT


##########                                Name:      oleObject5.pdb
##########                DOCK_Rotatable_Bonds:                   5
##########                         Heavy_Atoms:                  24
##########                    Molecular_Weight:             323.438
##########                DOCK_Rotatable_Bonds:                   5
##########                       Formal_Charge:         0.000200074
##########                     HBond_Acceptors:                   4
##########                        HBond_Donors:                   2
##########                         Heavy_Atoms:                  24
##########                          Grid_Score:          -24.545006
##########                     Grid_vdw_energy:          -24.516895
##########                      Grid_es_energy:           -0.028111
##########           Internal_energy_repulsive:           13.809710

@<TRIPOS>MOLECULE
oleObject5.pdb
 49 51 1 0 0
SMALL
NO_CHARGES


@<TRIPOS>ATOM
      1 C           2.4901    5.4978   48.7975 C.3     1  UNL        -0.0394
      2 C           2.6630    4.6451   50.0506 C.ar    1  UNL        -0.0456
      3 C           3.4374    5.1708   51.1036 C.ar    1  UNL        -0.0590
      4 C           3.6556    4.4324   52.2752 C.ar    1  UNL        -0.0620
      5 C           3.1035    3.1522   52.4033 C.ar    1  UNL        -0.0619
      6 C           2.3329    2.6168   51.3614 C.ar    1  UNL        -0.0565
      7 C           2.0946    3.3508   50.1799 C.ar    1  UNL        -0.0188
      8 C           1.2673    2.6927   49.0673 C.3     1  UNL         0.0906
      9 N           1.7986    1.3458   48.7935 N.am    1  UNL        -0.3025
     10 C           2.9170    1.1209   48.0113 C.2     1  UNL         0.2156
     11 O           3.6345    2.0303   47.6316 O.2     1  UNL        -0.2774
     12 C           3.2874   -0.3672   47.8637 C.3     1  UNL         0.0382
     13 C           2.1809   -1.2893   48.4424 C.3     1  UNL        -0.0292
     14 C           2.1801   -1.2824   49.9866 C.3     1  UNL        -0.0041
     15 N           3.5010   -1.6703   50.5105 N.4     1  UNL        -0.3167
     16 C           4.5928   -0.7927   50.0527 C.3     1  UNL        -0.0041
     17 C           4.6575   -0.7177   48.5063 C.3     1  UNL        -0.0292
     18 C          -0.2351    2.6872   49.3985 C.ar    1  UNL         0.0681
     19 N          -0.5784    3.0382   50.6618 N.ar    1  UNL        -0.2587
     20 C          -1.8783    3.0617   51.0113 C.ar    1  UNL         0.0272
     21 C          -2.9083    2.7393   50.1158 C.ar    1  UNL        -0.0435
     22 C          -2.5689    2.3795   48.8039 C.ar    1  UNL        -0.0559
     23 C          -1.2124    2.3508   48.4283 C.ar    1  UNL        -0.0272
     24 C          -0.8439    1.9685   47.0003 C.3     1  UNL        -0.0379
     25 H           2.8799    6.5128   48.9434 H       1  UNL         0.0280
     26 H           1.4364    5.6013   48.5157 H       1  UNL         0.0280
     27 H           3.0318    5.0659   47.9491 H       1  UNL         0.0280
     28 H           3.8800    6.1590   51.0131 H       1  UNL         0.0626
     29 H           4.2561    4.8498   53.0784 H       1  UNL         0.0623
     30 H           3.2752    2.5730   53.3061 H       1  UNL         0.0623
     31 H           1.9240    1.6172   51.4742 H       1  UNL         0.0627
     32 H           1.3767    3.2663   48.1421 H       1  UNL         0.0624
     33 H           1.5809    0.6408   49.4856 H       1  UNL         0.1504
     34 H           3.3630   -0.5605   46.7858 H       1  UNL         0.0402
     35 H           2.3529   -2.3160   48.0945 H       1  UNL         0.0288
     36 H           1.1919   -0.9969   48.0682 H       1  UNL         0.0288
     37 H           1.4164   -1.9793   50.3541 H       1  UNL         0.0428
     38 H           1.9179   -0.2788   50.3464 H       1  UNL         0.0428
     39 H           3.7019   -2.6263   50.2191 H       1  UNL         0.1222
     40 H           5.5507   -1.1638   50.4382 H       1  UNL         0.0428
     41 H           4.4437    0.2140   50.4626 H       1  UNL         0.0428
     42 H           4.9855   -1.6934   48.1253 H       1  UNL         0.0288
     43 H           5.4191    0.0100   48.1977 H       1  UNL         0.0288
     44 H          -2.0993    3.3476   52.0389 H       1  UNL         0.0840
     45 H          -3.9467    2.7696   50.4320 H       1  UNL         0.0639
     46 H          -3.3489    2.1284   48.0906 H       1  UNL         0.0627
     47 H          -1.7341    1.7438   46.3996 H       1  UNL         0.0280
     48 H          -0.2056    1.0768   46.9816 H       1  UNL         0.0280
     49 H          -0.3112    2.7853   46.4983 H       1  UNL         0.0280
@<TRIPOS>BOND
     1     1     2    1
     2     1    25    1
     3     1    26    1
     4     1    27    1
     5     2     3   ar
     6     2     7   ar
     7     3     4   ar
     8     3    28    1
     9     4     5   ar
    10     4    29    1
    11     5     6   ar
    12     5    30    1
    13     6     7   ar
    14     6    31    1
    15     7     8    1
    16     8     9    1
    17     8    18    1
    18     8    32    1
    19     9    10   am
    20     9    33    1
    21    10    11    2
    22    10    12    1
    23    12    13    1
    24    12    17    1
    25    12    34    1
    26    13    14    1
    27    13    35    1
    28    13    36    1
    29    14    15    1
    30    14    37    1
    31    14    38    1
    32    15    16    1
    33    15    39    1
    34    16    17    1
    35    16    40    1
    36    16    41    1
    37    17    42    1
    38    17    43    1
    39    18    19   ar
    40    18    23   ar
    41    19    20   ar
    42    20    21   ar
    43    20    44    1
    44    21    22   ar
    45    21    45    1
    46    22    23   ar
    47    22    46    1
    48    23    24    1
    49    24    47    1
    50    24    48    1
    51    24    49    1
@<TRIPOS>SUBSTRUCTURE
     1 UNL         1 TEMP              0 ****  ****    0 ROOT


##########                                Name:    ZINC001272744746
##########                DOCK_Rotatable_Bonds:                   6
##########                         Heavy_Atoms:                  25
##########                    Molecular_Weight:             348.417
##########                DOCK_Rotatable_Bonds:                   6
##########                       Formal_Charge:           0.0299999
##########                     HBond_Acceptors:                   6
##########                        HBond_Donors:                   1
##########                         Heavy_Atoms:                  25
##########                          Grid_Score:          -24.495995
##########                     Grid_vdw_energy:          -24.256361
##########                      Grid_es_energy:           -0.239634
##########           Internal_energy_repulsive:           30.918749

@<TRIPOS>MOLECULE
ZINC001272744746
 50 52 1 0 0
SMALL
USER_CHARGES


@<TRIPOS>ATOM
      1 C1         -0.9276    1.5031   46.8555 C.2     1  ZINC001272744746   -0.1700
      2 C2         -1.4893    2.5773   47.3523 C.2     1  ZINC001272744746   -0.1700
      3 C3         -0.6638    3.8135   47.5996 C.3     1  ZINC001272744746    0.1500
      4 N4         -1.1900    4.5268   48.7662 N.am    1  ZINC001272744746   -0.6100
      5 C5         -1.6980    3.8714   49.9789 C.3     1  ZINC001272744746    0.0700
      6 C6         -1.7367    4.9734   51.0514 C.3     1  ZINC001272744746    0.1100
      7 C7         -1.8534    6.2552   50.2065 C.3     1  ZINC001272744746   -0.1500
      8 C8         -1.2651    5.8659   48.8667 C.2     1  ZINC001272744746    0.5200
      9 O9         -0.9191    6.6475   48.0063 O.2     1  ZINC001272744746   -0.5200
     10 C10        -0.4458    4.9809   51.8584 C.3     1  ZINC001272744746   -0.1000
     11 C11        -0.3475    3.6854   52.6713 C.3     1  ZINC001272744746   -0.1200
     12 C12        -1.5925    3.5525   53.5528 C.3     1  ZINC001272744746   -0.1200
     13 C13        -2.8430    3.5568   52.6707 C.3     1  ZINC001272744746    0.0500
     14 N14        -2.9041    4.8151   51.9135 N.3     1  ZINC001272744746   -0.5100
     15 C15        -4.1479    4.9022   51.1368 C.3     1  ZINC001272744746    0.0800
     16 C16        -5.1340    3.8858   51.6519 C.ar    1  ZINC001272744746   -0.0200
     17 C17        -5.2806    2.6757   51.0004 C.ar    1  ZINC001272744746   -0.1700
     18 C18        -6.1855    1.7389   51.4700 C.ar    1  ZINC001272744746    0.1200
     19 F19        -6.3272    0.5567   50.8316 F       1  ZINC001272744746   -0.1200
     20 C20        -6.9461    2.0146   52.5968 C.ar    1  ZINC001272744746    0.0400
     21 O21        -7.8356    1.0956   53.0607 O.3     1  ZINC001272744746   -0.4700
     22 C22        -6.7970    3.2327   53.2516 C.ar    1  ZINC001272744746    0.1300
     23 O23        -7.5401    3.5075   54.3568 O.3     1  ZINC001272744746   -0.3000
     24 C24        -7.4063    4.8139   54.9203 C.3     1  ZINC001272744746    0.0200
     25 C25        -5.8859    4.1637   52.7785 C.ar    1  ZINC001272744746   -0.1800
     26 H26         0.1271    1.5036   46.6230 H       1  ZINC001272744746    0.1000
     27 H27        -1.5183    0.6157   46.6823 H       1  ZINC001272744746    0.1000
     28 H28        -2.5440    2.5768   47.5847 H       1  ZINC001272744746    0.1100
     29 H29         0.3717    3.5280   47.7850 H       1  ZINC001272744746    0.0900
     30 H30        -0.7107    4.4628   46.7252 H       1  ZINC001272744746    0.0800
     31 H31        -2.6996    3.4786   49.8046 H       1  ZINC001272744746    0.0700
     32 H32        -1.0254    3.0700   50.2850 H       1  ZINC001272744746    0.0900
     33 H33        -2.8979    6.5479   50.0988 H       1  ZINC001272744746    0.1100
     34 H34        -1.2740    7.0623   50.6549 H       1  ZINC001272744746    0.1100
     35 H35         0.4057    5.0510   51.1816 H       1  ZINC001272744746    0.0700
     36 H36        -0.4447    5.8356   52.5347 H       1  ZINC001272744746    0.0800
     37 H37        -0.2878    2.8335   51.9938 H       1  ZINC001272744746    0.0600
     38 H38         0.5426    3.7160   53.2997 H       1  ZINC001272744746    0.0700
     39 H39        -1.5446    2.6175   54.1110 H       1  ZINC001272744746    0.0700
     40 H40        -1.6360    4.3900   54.2491 H       1  ZINC001272744746    0.0700
     41 H41        -2.8012    2.7170   51.9771 H       1  ZINC001272744746    0.0400
     42 H42        -3.7301    3.4664   53.2975 H       1  ZINC001272744746    0.0900
     43 H43        -4.5702    5.9021   51.2381 H       1  ZINC001272744746    0.1000
     44 H44        -3.9352    4.7024   50.0866 H       1  ZINC001272744746    0.0600
     45 H45        -4.6886    2.4606   50.1230 H       1  ZINC001272744746    0.1400
     46 H46        -8.2868    1.3605   53.8739 H       1  ZINC001272744746    0.3900
     47 H47        -7.6952    5.5602   54.1801 H       1  ZINC001272744746    0.0600
     48 H48        -8.0515    4.9005   55.7945 H       1  ZINC001272744746    0.1100
     49 H49        -6.3701    4.9777   55.2159 H       1  ZINC001272744746    0.0600
     50 H50        -5.7687    5.1101   53.2856 H       1  ZINC001272744746    0.1400
@<TRIPOS>BOND
     1     1     2    2
     2     1    26    1
     3     1    27    1
     4     2     3    1
     5     2    28    1
     6     3     4    1
     7     3    29    1
     8     3    30    1
     9     4     8   am
    10     4     5    1
    11     5     6    1
    12     5    31    1
    13     5    32    1
    14     6    14    1
    15     6     7    1
    16     6    10    1
    17     7     8    1
    18     7    33    1
    19     7    34    1
    20     8     9    2
    21    10    11    1
    22    10    35    1
    23    10    36    1
    24    11    12    1
    25    11    37    1
    26    11    38    1
    27    12    13    1
    28    12    39    1
    29    12    40    1
    30    13    14    1
    31    13    41    1
    32    13    42    1
    33    14    15    1
    34    15    16    1
    35    15    43    1
    36    15    44    1
    37    16    25   ar
    38    16    17   ar
    39    17    18   ar
    40    17    45    1
    41    18    19    1
    42    18    20   ar
    43    20    21    1
    44    20    22   ar
    45    21    46    1
    46    22    23    1
    47    22    25   ar
    48    23    24    1
    49    24    47    1
    50    24    48    1
    51    24    49    1
    52    25    50    1
@<TRIPOS>SUBSTRUCTURE
     1 ZINC001272744746        1 TEMP              0 ****  ****    0 ROOT


##########                                Name:    ZINC000179211660
##########                DOCK_Rotatable_Bonds:                   6
##########                         Heavy_Atoms:                  23
##########                    Molecular_Weight:             385.208
##########                DOCK_Rotatable_Bonds:                   6
##########                       Formal_Charge:        -1.78814e-07
##########                     HBond_Acceptors:                   6
##########                        HBond_Donors:                   1
##########                         Heavy_Atoms:                  23
##########                          Grid_Score:          -24.489874
##########                     Grid_vdw_energy:          -23.790026
##########                      Grid_es_energy:           -0.699849
##########           Internal_energy_repulsive:           15.415693

@<TRIPOS>MOLECULE
ZINC000179211660
 38 39 1 0 0
SMALL
USER_CHARGES


@<TRIPOS>ATOM
      1 C1          0.9400    4.7056   44.0199 C.3     1  ZINC000179211660    0.0300
      2 O2          0.3671    4.3403   45.2771 O.3     1  ZINC000179211660   -0.2700
      3 C3          0.8638    3.2292   45.8818 C.ar    1  ZINC000179211660    0.1500
      4 C4          1.8898    2.5125   45.2838 C.ar    1  ZINC000179211660   -0.2200
      5 C5          2.3932    1.3834   45.9009 C.ar    1  ZINC000179211660   -0.0700
      6 C6          1.8749    0.9676   47.1131 C.ar    1  ZINC000179211660   -0.1700
      7 C7          0.8517    1.6801   47.7112 C.ar    1  ZINC000179211660   -0.0700
      8 C8          0.3491    2.8130   47.1014 C.ar    1  ZINC000179211660   -0.1500
      9 C9         -0.7656    3.5892   47.7539 C.3     1  ZINC000179211660    0.1800
     10 N10        -1.8776    2.6851   48.0576 N.am    1  ZINC000179211660   -0.6200
     11 C11        -2.2364    1.6227   47.1148 C.3     1  ZINC000179211660    0.0700
     12 C12        -2.5706    2.8307   49.2044 C.2     1  ZINC000179211660    0.7000
     13 O13        -3.4926    2.0794   49.4572 O.2     1  ZINC000179211660   -0.5300
     14 N14        -2.2416    3.8091   50.0709 N.am    1  ZINC000179211660   -0.6800
     15 C15        -2.9619    3.9606   51.2630 C.ar    1  ZINC000179211660    0.1900
     16 C16        -4.3166    4.2574   51.2233 C.ar    1  ZINC000179211660   -0.1400
     17 C17        -5.0259    4.4061   52.4021 C.ar    1  ZINC000179211660    0.1500
     18 F18        -6.3451    4.6951   52.3643 F       1  ZINC000179211660   -0.1100
     19 C19        -4.3845    4.2582   53.6210 C.ar    1  ZINC000179211660   -0.1300
     20 Br20       -5.3570    4.4613   55.2301 Br      1  ZINC000179211660   -0.0100
     21 C21        -3.0337    3.9617   53.6631 C.ar    1  ZINC000179211660   -0.0700
     22 C22        -2.3216    3.8079   52.4880 C.ar    1  ZINC000179211660    0.0600
     23 F23        -1.0026    3.5184   52.5299 F       1  ZINC000179211660   -0.1300
     24 H24         0.4543    5.6076   43.6477 H       1  ZINC000179211660    0.1000
     25 H25         2.0062    4.8931   44.1473 H       1  ZINC000179211660    0.0500
     26 H26         0.7965    3.8946   43.3059 H       1  ZINC000179211660    0.0500
     27 H27         2.2945    2.8366   44.3364 H       1  ZINC000179211660    0.1300
     28 H28         3.1920    0.8251   45.4355 H       1  ZINC000179211660    0.1200
     29 H29         2.2695    0.0846   47.5937 H       1  ZINC000179211660    0.1200
     30 H30         0.4482    1.3530   48.6581 H       1  ZINC000179211660    0.1300
     31 H31        -0.4019    4.0408   48.6769 H       1  ZINC000179211660    0.0900
     32 H32        -1.1082    4.3718   47.0770 H       1  ZINC000179211660    0.1000
     33 H33        -1.6757    0.7194   47.3548 H       1  ZINC000179211660    0.0600
     34 H34        -3.3044    1.4176   47.1878 H       1  ZINC000179211660    0.0600
     35 H35        -1.9960    1.9408   46.1003 H       1  ZINC000179211660    0.0800
     36 H36        -1.5060    4.4085   49.8693 H       1  ZINC000179211660    0.4100
     37 H37        -4.8171    4.3727   50.2733 H       1  ZINC000179211660    0.1800
     38 H38        -2.5360    3.8469   54.6146 H       1  ZINC000179211660    0.1600
@<TRIPOS>BOND
     1     1     2    1
     2     1    24    1
     3     1    25    1
     4     1    26    1
     5     2     3    1
     6     3     8   ar
     7     3     4   ar
     8     4     5   ar
     9     4    27    1
    10     5     6   ar
    11     5    28    1
    12     6     7   ar
    13     6    29    1
    14     7     8   ar
    15     7    30    1
    16     8     9    1
    17     9    10    1
    18     9    31    1
    19     9    32    1
    20    10    11    1
    21    10    12   am
    22    11    33    1
    23    11    34    1
    24    11    35    1
    25    12    13    2
    26    12    14   am
    27    14    15    1
    28    14    36    1
    29    15    22   ar
    30    15    16   ar
    31    16    17   ar
    32    16    37    1
    33    17    18    1
    34    17    19   ar
    35    19    20    1
    36    19    21   ar
    37    21    22   ar
    38    21    38    1
    39    22    23    1
@<TRIPOS>SUBSTRUCTURE
     1 ZINC000179211660        1 TEMP              0 ****  ****    0 ROOT


##########                                Name:    ZINC000550011575
##########                DOCK_Rotatable_Bonds:                   6
##########                         Heavy_Atoms:                  28
##########                    Molecular_Weight:             423.935
##########                DOCK_Rotatable_Bonds:                   6
##########                       Formal_Charge:          -0.0100002
##########                     HBond_Acceptors:                   7
##########                        HBond_Donors:                   0
##########                         Heavy_Atoms:                  28
##########                          Grid_Score:          -24.456467
##########                     Grid_vdw_energy:          -24.848885
##########                      Grid_es_energy:            0.392417
##########           Internal_energy_repulsive:           33.966763

@<TRIPOS>MOLECULE
ZINC000550011575
 51 53 1 0 0
SMALL
USER_CHARGES


@<TRIPOS>ATOM
      1 C1        -10.8875    0.6666   58.2654 C.3     1  ZINC000550011575   -0.1400
      2 C2        -11.3215   -0.4019   59.2708 C.3     1  ZINC000550011575   -0.6100
      3 H3        -12.3988   -0.5520   59.1991 H       1  ZINC000550011575    0.1500
      4 C4        -10.6126   -1.6963   58.9658 C.2     1  ZINC000550011575    0.5400
      5 O5         -9.7008   -2.0696   59.6730 O.2     1  ZINC000550011575   -0.5100
      6 N6        -10.9918   -2.4390   57.9070 N.am    1  ZINC000550011575   -0.6000
      7 C7        -10.3038   -3.6982   57.6115 C.3     1  ZINC000550011575    0.0600
      8 C8        -12.0920   -1.9871   57.0517 C.3     1  ZINC000550011575    0.1500
      9 C9        -13.0132   -3.1447   56.7644 C.ar    1  ZINC000550011575   -0.1500
     10 C10       -13.8826   -3.5969   57.7420 C.ar    1  ZINC000550011575    0.1400
     11 F11       -13.9056   -3.0010   58.9542 F       1  ZINC000550011575   -0.1100
     12 C12       -14.7290   -4.6604   57.4765 C.ar    1  ZINC000550011575   -0.1500
     13 C13       -14.7054   -5.2693   56.2363 C.ar    1  ZINC000550011575   -0.0700
     14 C14       -13.8371   -4.8176   55.2599 C.ar    1  ZINC000550011575   -0.1300
     15 C15       -12.9946   -3.7520   55.5217 C.ar    1  ZINC000550011575    0.0000
     16 Cl16      -11.9051   -3.1851   54.2947 Cl      1  ZINC000550011575   -0.0500
     17 S17       -10.8969    0.1392   60.9494 S.o2    1  ZINC000550011575    2.4500
     18 O18       -11.0077   -0.9741   61.8256 O.2     1  ZINC000550011575   -0.9200
     19 O19        -9.6742    0.8614   60.8965 O.2     1  ZINC000550011575   -0.9100
     20 C20       -12.2392    1.3018   61.3192 C.3     1  ZINC000550011575   -0.5300
     21 H21       -12.6700    1.6623   60.3851 H       1  ZINC000550011575    0.1500
     22 C22       -11.6783    2.4854   62.1049 C.3     1  ZINC000550011575   -0.1100
     23 C23       -12.8521    3.3422   62.5935 C.3     1  ZINC000550011575   -0.1100
     24 C24       -13.5997    2.5641   63.6745 C.3     1  ZINC000550011575   -0.0900
     25 C25       -13.9348    1.1769   63.1921 C.ar    1  ZINC000550011575   -0.0600
     26 C26       -14.9207    0.4759   63.8739 C.ar    1  ZINC000550011575   -0.1200
     27 C27       -15.2694   -0.8011   63.4847 C.ar    1  ZINC000550011575   -0.1100
     28 C28       -14.6320   -1.3885   62.4080 C.ar    1  ZINC000550011575   -0.1100
     29 C29       -13.6537   -0.6927   61.7278 C.ar    1  ZINC000550011575   -0.1500
     30 C30       -13.3036    0.5943   62.1165 C.ar    1  ZINC000550011575   -0.0800
     31 H31       -11.5157    1.5500   58.3801 H       1  ZINC000550011575    0.0900
     32 H32        -9.8468    0.9348   58.4469 H       1  ZINC000550011575    0.0900
     33 H33       -10.9909    0.2762   57.2530 H       1  ZINC000550011575    0.0800
     34 H34       -10.8025   -4.5157   58.1322 H       1  ZINC000550011575    0.0700
     35 H35       -10.3290   -3.8825   56.5375 H       1  ZINC000550011575    0.0800
     36 H36        -9.2681   -3.6332   57.9448 H       1  ZINC000550011575    0.0700
     37 H37       -12.6470   -1.1985   57.5600 H       1  ZINC000550011575    0.1000
     38 H38       -11.6893   -1.6020   56.1149 H       1  ZINC000550011575    0.1100
     39 H39       -15.4073   -5.0140   58.2388 H       1  ZINC000550011575    0.1500
     40 H40       -15.3654   -6.0989   56.0297 H       1  ZINC000550011575    0.1500
     41 H41       -13.8193   -5.2945   54.2910 H       1  ZINC000550011575    0.1400
     42 H42       -11.1087    2.1214   62.9600 H       1  ZINC000550011575    0.0800
     43 H43       -11.0325    3.0811   61.4598 H       1  ZINC000550011575    0.0900
     44 H44       -12.4763    4.2776   63.0081 H       1  ZINC000550011575    0.0800
     45 H45       -13.5242    3.5527   61.7615 H       1  ZINC000550011575    0.0700
     46 H46       -12.9743    2.4939   64.5644 H       1  ZINC000550011575    0.0800
     47 H47       -14.5210    3.0903   63.9239 H       1  ZINC000550011575    0.0800
     48 H48       -15.4185    0.9339   64.7158 H       1  ZINC000550011575    0.1300
     49 H49       -16.0374   -1.3399   64.0197 H       1  ZINC000550011575    0.1300
     50 H50       -14.8985   -2.3889   62.1004 H       1  ZINC000550011575    0.1300
     51 H51       -13.1558   -1.1526   60.8871 H       1  ZINC000550011575    0.1700
@<TRIPOS>BOND
     1     1     2    1
     2     1    31    1
     3     1    32    1
     4     1    33    1
     5     2     3    1
     6     2     4    1
     7     2    17    1
     8     4     5    2
     9     4     6   am
    10     6     7    1
    11     6     8    1
    12     7    34    1
    13     7    35    1
    14     7    36    1
    15     8     9    1
    16     8    37    1
    17     8    38    1
    18     9    15   ar
    19     9    10   ar
    20    10    11    1
    21    10    12   ar
    22    12    13   ar
    23    12    39    1
    24    13    14   ar
    25    13    40    1
    26    14    15   ar
    27    14    41    1
    28    15    16    1
    29    17    18    2
    30    17    19    2
    31    17    20    1
    32    20    21    1
    33    20    30    1
    34    20    22    1
    35    22    23    1
    36    22    42    1
    37    22    43    1
    38    23    24    1
    39    23    44    1
    40    23    45    1
    41    24    25    1
    42    24    46    1
    43    24    47    1
    44    25    30   ar
    45    25    26   ar
    46    26    27   ar
    47    26    48    1
    48    27    28   ar
    49    27    49    1
    50    28    29   ar
    51    28    50    1
    52    29    30   ar
    53    29    51    1
@<TRIPOS>SUBSTRUCTURE
     1 ZINC000550011575        1 TEMP              0 ****  ****    0 ROOT


##########                                Name:    ZINC000518234532
##########                DOCK_Rotatable_Bonds:                   5
##########                         Heavy_Atoms:                  25
##########                    Molecular_Weight:             408.267
##########                DOCK_Rotatable_Bonds:                   5
##########                       Formal_Charge:         -0.00999981
##########                     HBond_Acceptors:                   5
##########                        HBond_Donors:                   1
##########                         Heavy_Atoms:                  25
##########                          Grid_Score:          -24.452187
##########                     Grid_vdw_energy:          -24.753115
##########                      Grid_es_energy:            0.300928
##########           Internal_energy_repulsive:           17.021500

@<TRIPOS>MOLECULE
ZINC000518234532
 44 46 1 0 0
SMALL
USER_CHARGES


@<TRIPOS>ATOM
      1 C1        -13.0331   -2.7020   56.2422 C.3     1  ZINC000518234532   -0.1600
      2 C2        -11.5990   -2.3940   55.8066 C.3     1  ZINC000518234532    0.1800
      3 H3        -11.0972   -3.3205   55.5274 H       1  ZINC000518234532    0.1100
      4 N4        -11.6221   -1.4856   54.6575 N.am    1  ZINC000518234532   -0.7300
      5 C5        -11.6691   -1.9834   53.4059 C.2     1  ZINC000518234532    0.5200
      6 O6        -11.6907   -3.1833   53.2310 O.2     1  ZINC000518234532   -0.5200
      7 C7        -11.6946   -1.0489   52.2239 C.3     1  ZINC000518234532   -0.0700
      8 H8        -11.2706   -1.5512   51.3544 H       1  ZINC000518234532    0.1100
      9 C9        -10.8712    0.2003   52.5434 C.3     1  ZINC000518234532   -0.1400
     10 C10       -13.1178   -0.6506   51.9292 C.ar    1  ZINC000518234532   -0.1000
     11 C11       -14.0118   -0.4629   52.9660 C.ar    1  ZINC000518234532   -0.0600
     12 C12       -15.3177   -0.0974   52.6960 C.ar    1  ZINC000518234532   -0.1300
     13 C13       -15.7307    0.0801   51.3889 C.ar    1  ZINC000518234532   -0.0900
     14 C14       -14.8383   -0.1075   50.3501 C.ar    1  ZINC000518234532   -0.1600
     15 C15       -13.5289   -0.4670   50.6196 C.ar    1  ZINC000518234532    0.1000
     16 F16       -12.6558   -0.6507   49.6051 F       1  ZINC000518234532   -0.1400
     17 C17       -10.8567   -1.7442   56.9458 C.ar    1  ZINC000518234532   -0.0600
     18 C18       -10.8333   -0.3670   57.0576 C.ar    1  ZINC000518234532   -0.1100
     19 C19       -10.1515    0.2339   58.1054 C.ar    1  ZINC000518234532    0.0800
     20 C20        -9.4940   -0.5524   59.0438 C.ar    1  ZINC000518234532    0.0600
     21 C21        -9.5199   -1.9341   58.9259 C.ar    1  ZINC000518234532   -0.0800
     22 C22       -10.2045   -2.5273   57.8812 C.ar    1  ZINC000518234532   -0.0800
     23 Br23      -10.2388   -4.4114   57.7239 Br      1  ZINC000518234532   -0.0300
     24 O24        -8.8257    0.0168   60.0840 O.3     1  ZINC000518234532   -0.3000
     25 C25        -8.5086    1.4076   59.9614 C.3     1  ZINC000518234532    0.0200
     26 C26        -9.7606    2.1443   59.4664 C.3     1  ZINC000518234532    0.0200
     27 O27       -10.1342    1.5919   58.1996 O.3     1  ZINC000518234532   -0.3000
     28 H28       -13.5701   -3.1720   55.4183 H       1  ZINC000518234532    0.0700
     29 H29       -13.0159   -3.3777   57.0972 H       1  ZINC000518234532    0.0700
     30 H30       -13.5349   -1.7755   56.5214 H       1  ZINC000518234532    0.0600
     31 H31       -11.6037   -0.5259   54.7974 H       1  ZINC000518234532    0.4000
     32 H32        -9.8417   -0.0878   52.7565 H       1  ZINC000518234532    0.0700
     33 H33       -10.8897    0.8762   51.6885 H       1  ZINC000518234532    0.0700
     34 H34       -11.2953    0.7025   53.4129 H       1  ZINC000518234532    0.0700
     35 H35       -13.6905   -0.6020   53.9877 H       1  ZINC000518234532    0.1300
     36 H36       -16.0157    0.0491   53.5070 H       1  ZINC000518234532    0.1300
     37 H37       -16.7510    0.3653   51.1791 H       1  ZINC000518234532    0.1300
     38 H38       -15.1614    0.0306   49.3289 H       1  ZINC000518234532    0.1400
     39 H39       -11.3462    0.2422   56.3281 H       1  ZINC000518234532    0.1400
     40 H40        -9.0078   -2.5473   59.6526 H       1  ZINC000518234532    0.1500
     41 H41        -8.2089    1.8032   60.9319 H       1  ZINC000518234532    0.1300
     42 H42        -7.6979    1.5379   59.2446 H       1  ZINC000518234532    0.0800
     43 H43       -10.5731    2.0089   60.1803 H       1  ZINC000518234532    0.0800
     44 H44        -9.5421    3.2062   59.3545 H       1  ZINC000518234532    0.1300
@<TRIPOS>BOND
     1     1     2    1
     2     1    28    1
     3     1    29    1
     4     1    30    1
     5     2     3    1
     6     2     4    1
     7     2    17    1
     8     4     5   am
     9     4    31    1
    10     5     6    2
    11     5     7    1
    12     7     8    1
    13     7     9    1
    14     7    10    1
    15     9    32    1
    16     9    33    1
    17     9    34    1
    18    10    15   ar
    19    10    11   ar
    20    11    12   ar
    21    11    35    1
    22    12    13   ar
    23    12    36    1
    24    13    14   ar
    25    13    37    1
    26    14    15   ar
    27    14    38    1
    28    15    16    1
    29    17    22   ar
    30    17    18   ar
    31    18    19   ar
    32    18    39    1
    33    19    27    1
    34    19    20   ar
    35    20    21   ar
    36    20    24    1
    37    21    22   ar
    38    21    40    1
    39    22    23    1
    40    24    25    1
    41    25    26    1
    42    25    41    1
    43    25    42    1
    44    26    27    1
    45    26    43    1
    46    26    44    1
@<TRIPOS>SUBSTRUCTURE
     1 ZINC000518234532        1 TEMP              0 ****  ****    0 ROOT


##########                                Name:    ZINC000507831344
##########                DOCK_Rotatable_Bonds:                   6
##########                         Heavy_Atoms:                  31
##########                    Molecular_Weight:              422.53
##########                DOCK_Rotatable_Bonds:                   6
##########                       Formal_Charge:          -0.0200002
##########                     HBond_Acceptors:                   8
##########                        HBond_Donors:                   2
##########                         Heavy_Atoms:                  31
##########                          Grid_Score:          -24.425674
##########                     Grid_vdw_energy:          -24.903011
##########                      Grid_es_energy:            0.477338
##########           Internal_energy_repulsive:           20.414488

@<TRIPOS>MOLECULE
ZINC000507831344
 61 64 1 0 0
SMALL
USER_CHARGES


@<TRIPOS>ATOM
      1 C1        -13.4735    0.0746   51.8242 C.3     1  ZINC000507831344   -0.1000
      2 C2        -12.4665    0.2284   52.9349 C.ar    1  ZINC000507831344   -0.0800
      3 C3        -11.2056    0.7306   52.6718 C.ar    1  ZINC000507831344   -0.0800
      4 C4        -10.3066    0.8559   53.7300 C.ar    1  ZINC000507831344    0.0900
      5 N5         -9.0175    1.3608   53.5097 N.am    1  ZINC000507831344   -0.6700
      6 C6         -8.8216    2.6908   53.4157 C.2     1  ZINC000507831344    0.5100
      7 O7         -9.7608    3.4512   53.5217 O.2     1  ZINC000507831344   -0.5100
      8 C8         -7.4358    3.2336   53.1790 C.3     1  ZINC000507831344   -0.1400
      9 C9         -7.3852    3.9255   51.8153 C.3     1  ZINC000507831344   -0.0500
     10 C10        -5.9488    4.1037   51.3955 C.2     1  ZINC000507831344   -0.2200
     11 C11        -5.3014    3.1126   50.7277 C.2     1  ZINC000507831344    0.2100
     12 C12        -6.0113    1.8245   50.3993 C.3     1  ZINC000507831344   -0.1400
     13 N13        -4.0057    3.2975   50.3593 N.pl3   1  ZINC000507831344   -0.3000
     14 N14        -3.0969    2.4788   49.6780 N.am    1  ZINC000507831344   -0.5100
     15 C15        -1.9285    3.1392   49.5665 C.2     1  ZINC000507831344    0.5500
     16 O16        -0.9183    2.7174   49.0270 O.2     1  ZINC000507831344   -0.5400
     17 C17        -2.0696    4.3868   50.1722 C.2     1  ZINC000507831344   -0.3500
     18 C18        -3.3702    4.4750   50.6637 C.2     1  ZINC000507831344    0.3500
     19 N19        -4.0160    5.4452   51.3211 N.2     1  ZINC000507831344   -0.4800
     20 C20        -5.2713    5.2934   51.6845 C.2     1  ZINC000507831344    0.2500
     21 C21        -5.9784    6.4001   52.4237 C.3     1  ZINC000507831344   -0.1200
     22 C22       -10.7032    0.4757   55.0027 C.ar    1  ZINC000507831344    0.0800
     23 N23       -11.9151    0.0000   55.2181 N.ar    1  ZINC000507831344   -0.4900
     24 C24       -12.7960   -0.1278   54.2387 C.ar    1  ZINC000507831344    0.2800
     25 N25       -14.0632   -0.6343   54.5144 N.3     1  ZINC000507831344   -0.4800
     26 C26       -13.9794   -1.9999   55.0479 C.3     1  ZINC000507831344    0.0600
     27 C27       -15.3887   -2.5763   55.2016 C.3     1  ZINC000507831344   -0.1200
     28 C28       -16.1979   -1.6868   56.1496 C.3     1  ZINC000507831344   -0.1200
     29 C29       -16.2290   -0.2596   55.5957 C.3     1  ZINC000507831344   -0.1100
     30 C30       -14.7953    0.2495   55.4304 C.3     1  ZINC000507831344    0.0900
     31 H31       -14.2990    0.2584   56.4008 H       1  ZINC000507831344    0.0600
     32 C32       -14.8210    1.6682   54.8580 C.3     1  ZINC000507831344   -0.1400
     33 H33       -14.1137    0.9561   51.7897 H       1  ZINC000507831344    0.0700
     34 H34       -12.9519   -0.0332   50.8732 H       1  ZINC000507831344    0.0600
     35 H35       -14.0832   -0.8104   52.0066 H       1  ZINC000507831344    0.0800
     36 H36       -10.9235    1.0187   51.6700 H       1  ZINC000507831344    0.1500
     37 H37        -8.2664    0.7527   53.4248 H       1  ZINC000507831344    0.4100
     38 H38        -7.1887    3.9522   53.9604 H       1  ZINC000507831344    0.1000
     39 H39        -6.7167    2.4147   53.1978 H       1  ZINC000507831344    0.1000
     40 H40        -7.9059    3.3143   51.0781 H       1  ZINC000507831344    0.0900
     41 H41        -7.8672    4.9007   51.8845 H       1  ZINC000507831344    0.1000
     42 H42        -6.4934    1.9134   49.4258 H       1  ZINC000507831344    0.1000
     43 H43        -5.2895    1.0081   50.3742 H       1  ZINC000507831344    0.0800
     44 H44        -6.7644    1.6204   51.1604 H       1  ZINC000507831344    0.1100
     45 H45        -3.2781    1.5866   49.3434 H       1  ZINC000507831344    0.4400
     46 H46        -1.3074    5.1482   50.2472 H       1  ZINC000507831344    0.1700
     47 H47        -5.2950    7.2377   52.5642 H       1  ZINC000507831344    0.0900
     48 H48        -6.8421    6.7290   51.8459 H       1  ZINC000507831344    0.1000
     49 H49        -6.3094    6.0342   53.3956 H       1  ZINC000507831344    0.0900
     50 H50       -10.0123    0.5695   55.8274 H       1  ZINC000507831344    0.1600
     51 H51       -13.4051   -2.6230   54.3623 H       1  ZINC000507831344    0.0700
     52 H52       -13.4868   -1.9805   56.0199 H       1  ZINC000507831344    0.0500
     53 H53       -15.8769   -2.6088   54.2276 H       1  ZINC000507831344    0.0700
     54 H54       -15.3269   -3.5841   55.6122 H       1  ZINC000507831344    0.0700
     55 H55       -17.2155   -2.0693   56.2281 H       1  ZINC000507831344    0.0700
     56 H56       -15.7314   -1.6851   57.1347 H       1  ZINC000507831344    0.0600
     57 H57       -16.7305   -0.2557   54.6279 H       1  ZINC000507831344    0.0700
     58 H58       -16.7676    0.3878   56.2877 H       1  ZINC000507831344    0.0700
     59 H59       -15.2868    2.3419   55.5772 H       1  ZINC000507831344    0.0600
     60 H60       -13.8014    1.9981   54.6586 H       1  ZINC000507831344    0.0500
     61 H61       -15.3931    1.6753   53.9301 H       1  ZINC000507831344    0.0600
@<TRIPOS>BOND
     1     1     2    1
     2     1    33    1
     3     1    34    1
     4     1    35    1
     5     2    24   ar
     6     2     3   ar
     7     3     4   ar
     8     3    36    1
     9     4     5    1
    10     4    22   ar
    11     5     6   am
    12     5    37    1
    13     6     7    2
    14     6     8    1
    15     8     9    1
    16     8    38    1
    17     8    39    1
    18     9    10    1
    19     9    40    1
    20     9    41    1
    21    10    20    1
    22    10    11    2
    23    11    12    1
    24    11    13    1
    25    12    42    1
    26    12    43    1
    27    12    44    1
    28    13    18    1
    29    13    14    1
    30    14    15   am
    31    14    45    1
    32    15    16    2
    33    15    17    1
    34    17    18    2
    35    17    46    1
    36    18    19    1
    37    19    20    2
    38    20    21    1
    39    21    47    1
    40    21    48    1
    41    21    49    1
    42    22    23   ar
    43    22    50    1
    44    23    24   ar
    45    24    25    1
    46    25    30    1
    47    25    26    1
    48    26    27    1
    49    26    51    1
    50    26    52    1
    51    27    28    1
    52    27    53    1
    53    27    54    1
    54    28    29    1
    55    28    55    1
    56    28    56    1
    57    29    30    1
    58    29    57    1
    59    29    58    1
    60    30    31    1
    61    30    32    1
    62    32    59    1
    63    32    60    1
    64    32    61    1
@<TRIPOS>SUBSTRUCTURE
     1 ZINC000507831344        1 TEMP              0 ****  ****    0 ROOT


##########                                Name:    ZINC000828026236
##########                DOCK_Rotatable_Bonds:                   1
##########                         Heavy_Atoms:                  19
##########                    Molecular_Weight:             383.045
##########                DOCK_Rotatable_Bonds:                   1
##########                       Formal_Charge:                   0
##########                     HBond_Acceptors:                   5
##########                        HBond_Donors:                   0
##########                         Heavy_Atoms:                  19
##########                          Grid_Score:          -24.388779
##########                     Grid_vdw_energy:          -23.565071
##########                      Grid_es_energy:           -0.823707
##########           Internal_energy_repulsive:            2.652303

@<TRIPOS>MOLECULE
ZINC000828026236
 28 30 1 0 0
SMALL
USER_CHARGES


@<TRIPOS>ATOM
      1 N1         -6.5671   -1.4457   52.2691 N.1     1  ZINC000828026236   -0.3800
      2 C2         -7.3125   -0.5894   52.2292 C.1     1  ZINC000828026236    0.2600
      3 C3         -8.2521    0.4900   52.1790 C.ar    1  ZINC000828026236   -0.0500
      4 C4         -9.6147    0.2593   52.3985 C.ar    1  ZINC000828026236    0.0100
      5 C5        -10.4823    1.3370   52.3388 C.ar    1  ZINC000828026236   -0.1600
      6 Br6       -12.3343    1.0865   52.6276 Br      1  ZINC000828026236   -0.0100
      7 C7         -9.9836    2.5987   52.0669 C.ar    1  ZINC000828026236    0.1800
      8 N8         -8.6950    2.7950   51.8629 N.ar    1  ZINC000828026236   -0.5000
      9 C9         -7.8218    1.8018   51.9140 C.ar    1  ZINC000828026236    0.3600
     10 N10        -6.4786    2.0542   51.6934 N.3     1  ZINC000828026236   -0.4900
     11 C11        -6.1056    3.3882   52.1849 C.3     1  ZINC000828026236    0.0500
     12 C12        -4.5780    3.4978   52.2722 C.3     1  ZINC000828026236    0.1100
     13 N13        -4.0124    3.0442   50.9989 N.pl3   1  ZINC000828026236   -0.4400
     14 C14        -2.7594    3.2410   50.5070 C.2     1  ZINC000828026236   -0.0300
     15 Br15       -1.3495    4.1784   51.3491 Br      1  ZINC000828026236    0.0200
     16 C16        -2.7185    2.6365   49.3002 C.2     1  ZINC000828026236    0.0300
     17 N17        -3.9223    2.0856   49.0686 N.2     1  ZINC000828026236   -0.4700
     18 C18        -4.7025    2.3228   50.0794 C.2     1  ZINC000828026236    0.2300
     19 C19        -6.1392    1.8978   50.2684 C.3     1  ZINC000828026236    0.1500
     20 H20        -9.9808   -0.7348   52.6088 H       1  ZINC000828026236    0.1600
     21 H21       -10.6615    3.4381   52.0204 H       1  ZINC000828026236    0.1800
     22 H22        -6.4852    4.1464   51.5000 H       1  ZINC000828026236    0.0700
     23 H23        -6.5376    3.5444   53.1734 H       1  ZINC000828026236    0.1100
     24 H24        -4.2934    4.5344   52.4524 H       1  ZINC000828026236    0.1100
     25 H25        -4.2099    2.8688   53.0827 H       1  ZINC000828026236    0.1000
     26 H26        -1.8672    2.6020   48.6366 H       1  ZINC000828026236    0.1800
     27 H27        -6.2562    0.8547   49.9745 H       1  ZINC000828026236    0.1200
     28 H28        -6.7919    2.5269   49.6632 H       1  ZINC000828026236    0.1000
@<TRIPOS>BOND
     1     1     2    3
     2     2     3    1
     3     3     9   ar
     4     3     4   ar
     5     4     5   ar
     6     4    20    1
     7     5     6    1
     8     5     7   ar
     9     7     8   ar
    10     7    21    1
    11     8     9   ar
    12     9    10    1
    13    10    19    1
    14    10    11    1
    15    11    12    1
    16    11    22    1
    17    11    23    1
    18    12    13    1
    19    12    24    1
    20    12    25    1
    21    13    18    1
    22    13    14    1
    23    14    15    1
    24    14    16    2
    25    16    17    1
    26    16    26    1
    27    17    18    2
    28    18    19    1
    29    19    27    1
    30    19    28    1
@<TRIPOS>SUBSTRUCTURE
     1 ZINC000828026236        1 TEMP              0 ****  ****    0 ROOT


##########                                Name:    ZINC000422507946
##########                DOCK_Rotatable_Bonds:                   7
##########                         Heavy_Atoms:                  25
##########                    Molecular_Weight:             364.484
##########                DOCK_Rotatable_Bonds:                   7
##########                       Formal_Charge:          0.00999952
##########                     HBond_Acceptors:                   6
##########                        HBond_Donors:                   1
##########                         Heavy_Atoms:                  25
##########                          Grid_Score:          -24.232672
##########                     Grid_vdw_energy:          -22.960411
##########                      Grid_es_energy:           -1.272261
##########           Internal_energy_repulsive:           42.346901

@<TRIPOS>MOLECULE
ZINC000422507946
 50 52 1 0 0
SMALL
USER_CHARGES


@<TRIPOS>ATOM
      1 C1         -1.8850    4.9371   58.1752 C.3     1  ZINC000422507946   -0.1400
      2 C2         -1.4645    5.1307   56.7170 C.3     1  ZINC000422507946   -0.0400
      3 H3         -1.0725    6.1364   56.5657 H       1  ZINC000422507946    0.1100
      4 C4         -2.6578    4.8712   55.7741 C.3     1  ZINC000422507946   -0.1400
      5 C5         -2.1344    4.2569   54.4642 C.3     1  ZINC000422507946    0.1400
      6 H6         -1.6098    5.0139   53.8814 H       1  ZINC000422507946    0.1100
      7 N7         -3.2497    3.7111   53.6867 N.am    1  ZINC000422507946   -0.6900
      8 C8         -3.1271    3.5501   52.3542 C.2     1  ZINC000422507946    0.5100
      9 O9         -2.0925    3.8558   51.7987 O.2     1  ZINC000422507946   -0.5000
     10 C10        -4.2655    2.9950   51.5608 C.2     1  ZINC000422507946    0.5100
     11 O11        -4.0857    2.0501   50.8209 O.2     1  ZINC000422507946   -0.5200
     12 N12        -5.4919    3.5439   51.6671 N.am    1  ZINC000422507946   -0.5700
     13 C13        -6.6078    2.9997   50.8894 C.3     1  ZINC000422507946    0.1400
     14 C14        -7.0089    1.6616   51.4547 C.ar    1  ZINC000422507946   -0.0800
     15 C15        -7.9428    1.5930   52.4714 C.ar    1  ZINC000422507946   -0.1100
     16 C16        -8.3118    0.3661   52.9911 C.ar    1  ZINC000422507946   -0.0900
     17 C17        -7.7472   -0.7932   52.4945 C.ar    1  ZINC000422507946   -0.1500
     18 C18        -6.8117   -0.7257   51.4756 C.ar    1  ZINC000422507946    0.1000
     19 F19        -6.2590   -1.8585   50.9894 F       1  ZINC000422507946   -0.1400
     20 C20        -6.4470    0.5030   50.9525 C.ar    1  ZINC000422507946   -0.1500
     21 C21        -5.7090    4.6845   52.5604 C.3     1  ZINC000422507946    0.1400
     22 C22        -6.7461    5.6471   51.9458 C.3     1  ZINC000422507946   -0.1200
     23 C23        -8.0870    5.2275   52.5978 C.3     1  ZINC000422507946   -0.1300
     24 C24        -7.6693    4.8882   54.0502 C.3     1  ZINC000422507946   -0.1200
     25 C25        -6.2960    4.2020   53.8984 C.3     1  ZINC000422507946   -0.1600
     26 C26        -1.1557    3.1196   54.8589 C.3     1  ZINC000422507946   -0.0900
     27 S27        -0.2144    3.8801   56.2418 S.3     1  ZINC000422507946   -0.2700
     28 H28        -1.0248    5.0958   58.8256 H       1  ZINC000422507946    0.0700
     29 H29        -2.6672    5.6536   58.4260 H       1  ZINC000422507946    0.0700
     30 H30        -2.2627    3.9239   58.3130 H       1  ZINC000422507946    0.0700
     31 H31        -3.3555    4.1811   56.2486 H       1  ZINC000422507946    0.0900
     32 H32        -3.1659    5.8113   55.5598 H       1  ZINC000422507946    0.0900
     33 H33        -4.0763    3.4656   54.1310 H       1  ZINC000422507946    0.4100
     34 H34        -7.4545    3.6844   50.9408 H       1  ZINC000422507946    0.1100
     35 H35        -6.3014    2.8781   49.8504 H       1  ZINC000422507946    0.1000
     36 H36        -8.3843    2.4987   52.8604 H       1  ZINC000422507946    0.1400
     37 H37        -9.0413    0.3138   53.7857 H       1  ZINC000422507946    0.1300
     38 H38        -8.0350   -1.7513   52.9011 H       1  ZINC000422507946    0.1400
     39 H39        -5.7178    0.5567   50.1576 H       1  ZINC000422507946    0.1400
     40 H40        -4.7685    5.2081   52.7324 H       1  ZINC000422507946    0.1100
     41 H41        -6.5054    6.6796   52.1989 H       1  ZINC000422507946    0.0800
     42 H42        -6.7914    5.5192   50.8642 H       1  ZINC000422507946    0.0600
     43 H43        -8.7985    6.0531   52.5834 H       1  ZINC000422507946    0.0700
     44 H44        -8.5008    4.3506   52.1000 H       1  ZINC000422507946    0.0600
     45 H45        -7.5776    5.7980   54.6433 H       1  ZINC000422507946    0.0700
     46 H46        -8.3883    4.2064   54.5045 H       1  ZINC000422507946    0.0700
     47 H47        -6.4193    3.1191   53.8832 H       1  ZINC000422507946    0.0900
     48 H48        -5.6409    4.4920   54.7198 H       1  ZINC000422507946    0.0800
     49 H49        -1.7009    2.2386   55.1974 H       1  ZINC000422507946    0.1000
     50 H50        -0.4933    2.8724   54.0293 H       1  ZINC000422507946    0.1100
@<TRIPOS>BOND
     1     1     2    1
     2     1    28    1
     3     1    29    1
     4     1    30    1
     5     2     3    1
     6     2    27    1
     7     2     4    1
     8     4     5    1
     9     4    31    1
    10     4    32    1
    11     5     6    1
    12     5     7    1
    13     5    26    1
    14     7     8   am
    15     7    33    1
    16     8     9    2
    17     8    10    1
    18    10    11    2
    19    10    12   am
    20    12    13    1
    21    12    21    1
    22    13    14    1
    23    13    34    1
    24    13    35    1
    25    14    20   ar
    26    14    15   ar
    27    15    16   ar
    28    15    36    1
    29    16    17   ar
    30    16    37    1
    31    17    18   ar
    32    17    38    1
    33    18    19    1
    34    18    20   ar
    35    20    39    1
    36    21    25    1
    37    21    22    1
    38    21    40    1
    39    22    23    1
    40    22    41    1
    41    22    42    1
    42    23    24    1
    43    23    43    1
    44    23    44    1
    45    24    25    1
    46    24    45    1
    47    24    46    1
    48    25    47    1
    49    25    48    1
    50    26    27    1
    51    26    49    1
    52    26    50    1
@<TRIPOS>SUBSTRUCTURE
     1 ZINC000422507946        1 TEMP              0 ****  ****    0 ROOT


##########                                Name:    ZINC001122903793
##########                DOCK_Rotatable_Bonds:                   4
##########                         Heavy_Atoms:                  25
##########                    Molecular_Weight:             399.968
##########                DOCK_Rotatable_Bonds:                   4
##########                       Formal_Charge:           0.0100003
##########                     HBond_Acceptors:                   9
##########                        HBond_Donors:                   0
##########                         Heavy_Atoms:                  25
##########                          Grid_Score:          -24.223227
##########                     Grid_vdw_energy:          -24.612774
##########                      Grid_es_energy:            0.389547
##########           Internal_energy_repulsive:           18.912771

@<TRIPOS>MOLECULE
ZINC001122903793
 47 50 1 0 0
SMALL
USER_CHARGES


@<TRIPOS>ATOM
      1 C1        -14.1956   -4.0267   56.6263 C.3     1  ZINC001122903793   -0.1400
      2 C2        -14.1926   -2.5868   56.1089 C.3     1  ZINC001122903793   -0.0400
      3 H3        -13.9555   -1.9049   56.9255 H       1  ZINC001122903793    0.1000
      4 S4        -15.8290   -2.1788   55.4275 S.3     1  ZINC001122903793   -0.2500
      5 C5        -15.5173   -0.5689   54.6405 C.3     1  ZINC001122903793   -0.0800
      6 C6        -14.2939   -0.7026   53.7273 C.3     1  ZINC001122903793    0.0700
      7 N7        -13.1158   -1.0564   54.5223 N.3     1  ZINC001122903793   -0.4800
      8 C8        -11.9486   -0.8002   53.8215 C.2     1  ZINC001122903793    0.3700
      9 N9        -11.4961   -1.4750   52.7906 N.2     1  ZINC001122903793   -0.2900
     10 N10       -10.3879   -0.9687   52.3819 N.2     1  ZINC001122903793   -0.2400
     11 C11       -10.0640    0.0634   53.1291 C.2     1  ZINC001122903793    0.2600
     12 C12        -8.8685    0.9098   52.9826 C.2     1  ZINC001122903793   -0.1600
     13 C13        -7.6474    0.5007   52.5640 C.2     1  ZINC001122903793    0.1600
     14 Cl14       -7.3023   -1.1428   52.1240 Cl      1  ZINC001122903793    0.0300
     15 N15        -6.7461    1.4563   52.5201 N.2     1  ZINC001122903793   -0.4600
     16 C16        -7.1212    2.6412   52.8718 C.2     1  ZINC001122903793    0.0300
     17 S17        -8.7726    2.6379   53.3130 S.3     1  ZINC001122903793    0.2200
     18 N18       -11.0577    0.2055   54.0715 N.pl3   1  ZINC001122903793   -0.4600
     19 C19       -11.1391    1.2186   55.1267 C.3     1  ZINC001122903793    0.1100
     20 C20        -9.9922    1.0152   56.1186 C.3     1  ZINC001122903793    0.0700
     21 H21        -9.0498    0.8893   55.5857 H       1  ZINC001122903793    0.0800
     22 C22        -9.9032    2.2176   57.0918 C.3     1  ZINC001122903793   -0.1500
     23 C23        -9.2056    1.5578   58.3125 C.3     1  ZINC001122903793   -0.1500
     24 C24        -9.7789    0.1247   58.2825 C.3     1  ZINC001122903793    0.0500
     25 O25       -10.2501   -0.1262   56.9518 O.3     1  ZINC001122903793   -0.3700
     26 C26       -13.1481   -2.4416   54.9970 C.3     1  ZINC001122903793    0.1000
     27 H27       -13.4112   -3.1016   54.1704 H       1  ZINC001122903793    0.0800
     28 C28       -11.7688   -2.8266   55.5356 C.3     1  ZINC001122903793   -0.1500
     29 H29       -13.2120   -4.2707   57.0276 H       1  ZINC001122903793    0.0800
     30 H30       -14.9442   -4.1289   57.4121 H       1  ZINC001122903793    0.0700
     31 H31       -14.4329   -4.7064   55.8079 H       1  ZINC001122903793    0.0700
     32 H32       -16.3851   -0.2760   54.0495 H       1  ZINC001122903793    0.1200
     33 H33       -15.3222    0.1816   55.4065 H       1  ZINC001122903793    0.0900
     34 H34       -14.4780   -1.4809   52.9867 H       1  ZINC001122903793    0.0700
     35 H35       -14.1163    0.2449   53.2187 H       1  ZINC001122903793    0.0900
     36 H36        -6.4826    3.5121   52.8815 H       1  ZINC001122903793    0.2100
     37 H37       -11.0644    2.2116   54.6834 H       1  ZINC001122903793    0.1200
     38 H38       -12.0916    1.1243   55.6481 H       1  ZINC001122903793    0.1000
     39 H39        -9.2911    3.0167   56.6740 H       1  ZINC001122903793    0.0900
     40 H40       -10.8955    2.5829   57.3567 H       1  ZINC001122903793    0.0800
     41 H41        -8.1237    1.5457   58.1810 H       1  ZINC001122903793    0.0800
     42 H42        -9.4794    2.0659   59.2372 H       1  ZINC001122903793    0.0900
     43 H43        -8.9977   -0.5914   58.5377 H       1  ZINC001122903793    0.0700
     44 H44       -10.6040    0.0416   58.9898 H       1  ZINC001122903793    0.0700
     45 H45       -11.5033   -2.1654   56.3606 H       1  ZINC001122903793    0.0600
     46 H46       -11.7916   -3.8574   55.8893 H       1  ZINC001122903793    0.0800
     47 H47       -11.0288   -2.7313   54.7410 H       1  ZINC001122903793    0.0600
@<TRIPOS>BOND
     1     1     2    1
     2     1    29    1
     3     1    30    1
     4     1    31    1
     5     2     3    1
     6     2    26    1
     7     2     4    1
     8     4     5    1
     9     5     6    1
    10     5    32    1
    11     5    33    1
    12     6     7    1
    13     6    34    1
    14     6    35    1
    15     7     8    1
    16     7    26    1
    17     8    18    1
    18     8     9    2
    19     9    10    1
    20    10    11    2
    21    11    12    1
    22    11    18    1
    23    12    17    1
    24    12    13    2
    25    13    14    1
    26    13    15    1
    27    15    16    2
    28    16    17    1
    29    16    36    1
    30    18    19    1
    31    19    20    1
    32    19    37    1
    33    19    38    1
    34    20    21    1
    35    20    25    1
    36    20    22    1
    37    22    23    1
    38    22    39    1
    39    22    40    1
    40    23    24    1
    41    23    41    1
    42    23    42    1
    43    24    25    1
    44    24    43    1
    45    24    44    1
    46    26    27    1
    47    26    28    1
    48    28    45    1
    49    28    46    1
    50    28    47    1
@<TRIPOS>SUBSTRUCTURE
     1 ZINC001122903793        1 TEMP              0 ****  ****    0 ROOT


##########                                Name:    ZINC000012087388
##########                DOCK_Rotatable_Bonds:                   5
##########                         Heavy_Atoms:                  29
##########                    Molecular_Weight:              418.52
##########                DOCK_Rotatable_Bonds:                   5
##########                       Formal_Charge:          -0.0499999
##########                     HBond_Acceptors:                  10
##########                        HBond_Donors:                   1
##########                         Heavy_Atoms:                  29
##########                          Grid_Score:          -24.134346
##########                     Grid_vdw_energy:          -24.886101
##########                      Grid_es_energy:            0.751755
##########           Internal_energy_repulsive:           25.832724

@<TRIPOS>MOLECULE
ZINC000012087388
 55 58 1 0 0
SMALL
USER_CHARGES


@<TRIPOS>ATOM
      1 C1         -9.4036    3.9193   62.3807 C.3     1  <0>        -0.6600
      2 S2         -9.6208    2.5381   61.2250 S.o2    1  <0>         2.5100
      3 O3         -9.9335    3.0199   59.9253 O.2     1  <0>        -0.9400
      4 O4         -8.6078    1.5608   61.4200 O.2     1  <0>        -0.9300
      5 C5        -11.0994    1.7442   61.7616 C.ar    1  <0>        -0.8400
      6 C6        -11.8331    2.2550   62.8205 C.ar    1  <0>         0.3000
      7 N7        -12.9389    1.6350   63.1981 N.ar    1  <0>        -0.5800
      8 C8        -13.3465    0.5384   62.5763 C.ar    1  <0>         0.6000
      9 N9        -14.5082   -0.0849   62.9976 N.pl3   1  <0>        -0.5700
     10 C10       -15.3378    0.5122   64.0530 C.3     1  <0>         0.1200
     11 C11       -16.7748    0.6400   63.5377 C.3     1  <0>        -0.1400
     12 C12       -17.2622   -0.7274   63.0532 C.3     1  <0>        -0.1200
     13 C13       -16.3768   -1.2076   61.9011 C.3     1  <0>        -0.1400
     14 C14       -14.9385   -1.3533   62.3936 C.3     1  <0>         0.1200
     15 N15       -12.6686    0.0245   61.5605 N.ar    1  <0>        -0.5700
     16 C16       -11.5572    0.5982   61.1300 C.ar    1  <0>         0.3200
     17 C17       -10.7923    0.0072   59.9740 C.3     1  <0>        -0.0700
     18 C18       -10.1804   -1.3300   60.3979 C.3     1  <0>        -0.1300
     19 C19        -9.3750   -1.9111   59.2314 C.3     1  <0>         0.0900
     20 N20       -10.2451   -1.9930   58.0504 N.am    1  <0>        -0.6100
     21 C21       -10.3902   -3.1553   57.3836 C.2     1  <0>         0.5900
     22 O22        -9.7978   -4.1493   57.7582 O.2     1  <0>        -0.5100
     23 C23       -11.2653   -3.2216   56.2023 C.2     1  <0>        -0.0400
     24 C24       -10.9921   -2.7305   54.9376 C.2     1  <0>        -0.1500
     25 C25       -12.1199   -3.0336   54.1713 C.2     1  <0>         0.0000
     26 N26       -12.9752   -3.6533   54.9439 N.2     1  <0>        -0.2700
     27 N27       -12.5076   -3.7854   56.1329 N.pl3   1  <0>        -0.3900
     28 C28       -10.9543   -0.7838   57.6101 C.3     1  <0>         0.1100
     29 C29       -11.7420   -0.2155   58.7946 C.3     1  <0>        -0.1200
     30 H30       -10.2665    4.5826   62.3204 H       1  <0>         0.1400
     31 H31        -9.3126    3.5328   63.3958 H       1  <0>         0.1300
     32 H32        -8.5012    4.4725   62.1203 H       1  <0>         0.1400
     33 H33       -11.5057    3.1485   63.3315 H       1  <0>         0.1900
     34 H34       -15.3217   -0.1269   64.9359 H       1  <0>         0.0700
     35 H35       -14.9514    1.4993   64.3069 H       1  <0>         0.1000
     36 H36       -17.4200    0.9920   64.3426 H       1  <0>         0.0800
     37 H37       -16.8030    1.3501   62.7112 H       1  <0>         0.0700
     38 H38       -17.2103   -1.4431   63.8738 H       1  <0>         0.0700
     39 H39       -18.2930   -0.6443   62.7088 H       1  <0>         0.0700
     40 H40       -16.7387   -2.1707   61.5411 H       1  <0>         0.0800
     41 H41       -16.4088   -0.4801   61.0900 H       1  <0>         0.0700
     42 H42       -14.2880   -1.5991   61.5542 H       1  <0>         0.1000
     43 H43       -14.8870   -2.1439   63.1423 H       1  <0>         0.0700
     44 H44        -9.9979    0.6916   59.6763 H       1  <0>         0.1000
     45 H45        -9.5221   -1.1742   61.2525 H       1  <0>         0.0800
     46 H46       -10.9756   -2.0234   60.6720 H       1  <0>         0.0900
     47 H47        -8.5256   -1.2632   59.0153 H       1  <0>         0.0800
     48 H48        -9.0197   -2.9077   59.4933 H       1  <0>         0.0900
     49 H49       -10.0971   -2.2211   54.6122 H       1  <0>         0.1700
     50 H50       -12.2611   -2.7979   53.1269 H       1  <0>         0.1900
     51 H51       -12.9690   -4.2138   56.8707 H       1  <0>         0.4400
     52 H52       -10.2336   -0.0440   57.2617 H       1  <0>         0.0800
     53 H53       -11.6409   -1.0367   56.8022 H       1  <0>         0.1000
     54 H54       -12.5224   -0.9192   59.0839 H       1  <0>         0.0800
     55 H55       -12.1952    0.7337   58.5084 H       1  <0>         0.0900
@<TRIPOS>BOND
     1     1     2    1
     2     1    30    1
     3     1    31    1
     4     1    32    1
     5     2     3    2
     6     2     4    2
     7     2     5    1
     8     5    16   ar
     9     5     6   ar
    10     6     7   ar
    11     6    33    1
    12     7     8   ar
    13     8     9    1
    14     8    15   ar
    15     9    14    1
    16     9    10    1
    17    10    11    1
    18    10    34    1
    19    10    35    1
    20    11    12    1
    21    11    36    1
    22    11    37    1
    23    12    13    1
    24    12    38    1
    25    12    39    1
    26    13    14    1
    27    13    40    1
    28    13    41    1
    29    14    42    1
    30    14    43    1
    31    15    16   ar
    32    16    17    1
    33    17    29    1
    34    17    18    1
    35    17    44    1
    36    18    19    1
    37    18    45    1
    38    18    46    1
    39    19    20    1
    40    19    47    1
    41    19    48    1
    42    20    21   am
    43    20    28    1
    44    21    22    2
    45    21    23    1
    46    23    27    1
    47    23    24    2
    48    24    25    1
    49    24    49    1
    50    25    26    2
    51    25    50    1
    52    26    27    1
    53    27    51    1
    54    28    29    1
    55    28    52    1
    56    28    53    1
    57    29    54    1
    58    29    55    1
@<TRIPOS>SUBSTRUCTURE
     1 <0>         1 TEMP              0 ****  ****    0 ROOT


##########                                Name:    ZINC000653668607
##########                DOCK_Rotatable_Bonds:                   5
##########                         Heavy_Atoms:                  28
##########                    Molecular_Weight:             379.459
##########                DOCK_Rotatable_Bonds:                   5
##########                       Formal_Charge:          0.00999918
##########                     HBond_Acceptors:                   6
##########                        HBond_Donors:                   2
##########                         Heavy_Atoms:                  28
##########                          Grid_Score:          -24.116625
##########                     Grid_vdw_energy:          -22.135685
##########                      Grid_es_energy:           -1.980940
##########           Internal_energy_repulsive:           11.568257

@<TRIPOS>MOLECULE
ZINC000653668607
 53 56 1 0 0
SMALL
USER_CHARGES


@<TRIPOS>ATOM
      1 C1         -0.9467    2.4254   58.0972 C.3     1  ZINC000653668607    0.0300
      2 O2         -2.1281    3.1917   57.8542 O.3     1  ZINC000653668607   -0.3200
      3 C3         -2.4438    3.4440   56.5567 C.ar    1  ZINC000653668607    0.1300
      4 C4         -1.5567    3.1065   55.5450 C.ar    1  ZINC000653668607   -0.2000
      5 C5         -1.8879    3.3641   54.2316 C.ar    1  ZINC000653668607   -0.0800
      6 C6         -3.1019    3.9585   53.9115 C.ar    1  ZINC000653668607   -0.1000
      7 C7         -3.4025    4.1964   52.4545 C.3     1  ZINC000653668607   -0.0800
      8 C8         -4.5300    5.2145   52.2979 C.3     1  ZINC000653668607   -0.1200
      9 C9         -5.7065    4.7725   53.1762 C.3     1  ZINC000653668607   -0.1100
     10 C10        -5.3102    4.9551   54.6398 C.3     1  ZINC000653668607   -0.0600
     11 H11        -5.2387    6.0197   54.8627 H       1  ZINC000653668607    0.1000
     12 C12        -6.3625    4.3327   55.5209 C.2     1  ZINC000653668607    0.5200
     13 O13        -7.1145    5.0388   56.1589 O.2     1  ZINC000653668607   -0.5100
     14 N14        -6.4680    2.9914   55.6001 N.am    1  ZINC000653668607   -0.6700
     15 C15        -7.4450    2.4135   56.4181 C.ar    1  ZINC000653668607    0.1500
     16 C16        -7.2826    2.4085   57.7976 C.ar    1  ZINC000653668607   -0.1100
     17 C17        -8.2471    1.8379   58.6062 C.ar    1  ZINC000653668607   -0.0900
     18 C18        -9.3752    1.2708   58.0459 C.ar    1  ZINC000653668607   -0.1200
     19 C19        -9.5432    1.2722   56.6667 C.ar    1  ZINC000653668607    0.1700
     20 N20       -10.6862    0.6971   56.0997 N.am    1  ZINC000653668607   -0.5800
     21 C21       -10.7545   -0.7566   55.9422 C.3     1  ZINC000653668607    0.1100
     22 C22       -12.2189   -1.2020   56.0152 C.3     1  ZINC000653668607   -0.1500
     23 C23       -13.0174   -0.4283   54.9607 C.3     1  ZINC000653668607    0.1100
     24 N24       -12.8263    1.0076   55.1717 N.am    1  ZINC000653668607   -0.7400
     25 C25       -11.6991    1.4887   55.7169 C.2     1  ZINC000653668607    0.7100
     26 O26       -11.5870    2.6909   55.8605 O.2     1  ZINC000653668607   -0.5800
     27 C27        -8.5799    1.8498   55.8526 C.ar    1  ZINC000653668607   -0.1300
     28 C28        -3.9820    4.2997   54.9148 C.ar    1  ZINC000653668607   -0.0300
     29 C29        -3.6550    4.0341   56.2371 C.ar    1  ZINC000653668607   -0.1500
     30 H30        -1.0437    1.4482   57.6241 H       1  ZINC000653668607    0.0600
     31 H31        -0.0839    2.9462   57.6819 H       1  ZINC000653668607    0.0600
     32 H32        -0.8113    2.2973   59.1712 H       1  ZINC000653668607    0.1000
     33 H33        -0.6106    2.6445   55.7851 H       1  ZINC000653668607    0.1300
     34 H34        -1.1968    3.1014   53.4443 H       1  ZINC000653668607    0.1300
     35 H35        -2.5071    4.5728   51.9597 H       1  ZINC000653668607    0.0800
     36 H36        -3.7003    3.2560   51.9907 H       1  ZINC000653668607    0.0800
     37 H37        -4.1837    6.1979   52.6159 H       1  ZINC000653668607    0.0700
     38 H38        -4.8454    5.2554   51.2553 H       1  ZINC000653668607    0.0800
     39 H39        -6.5809    5.3841   52.9535 H       1  ZINC000653668607    0.0700
     40 H40        -5.9333    3.7235   52.9854 H       1  ZINC000653668607    0.0800
     41 H41        -5.8666    2.4267   55.0898 H       1  ZINC000653668607    0.4100
     42 H42        -6.4016    2.8508   58.2387 H       1  ZINC000653668607    0.1400
     43 H43        -8.1184    1.8350   59.6785 H       1  ZINC000653668607    0.1300
     44 H44       -10.1272    0.8257   58.6804 H       1  ZINC000653668607    0.1200
     45 H45       -10.3358   -1.0382   54.9760 H       1  ZINC000653668607    0.0700
     46 H46       -10.1875   -1.2365   56.7398 H       1  ZINC000653668607    0.0900
     47 H47       -12.2867   -2.2711   55.8141 H       1  ZINC000653668607    0.1000
     48 H48       -12.6177   -0.9873   57.0067 H       1  ZINC000653668607    0.0800
     49 H49       -12.6657   -0.7003   53.9655 H       1  ZINC000653668607    0.0700
     50 H50       -14.0757   -0.6725   55.0535 H       1  ZINC000653668607    0.0900
     51 H51       -13.5307    1.6234   54.9155 H       1  ZINC000653668607    0.4200
     52 H52        -8.7085    1.8523   54.7803 H       1  ZINC000653668607    0.1300
     53 H53        -4.3483    4.2942   57.0233 H       1  ZINC000653668607    0.1200
@<TRIPOS>BOND
     1     1     2    1
     2     1    30    1
     3     1    31    1
     4     1    32    1
     5     2     3    1
     6     3    29   ar
     7     3     4   ar
     8     4     5   ar
     9     4    33    1
    10     5     6   ar
    11     5    34    1
    12     6    28   ar
    13     6     7    1
    14     7     8    1
    15     7    35    1
    16     7    36    1
    17     8     9    1
    18     8    37    1
    19     8    38    1
    20     9    10    1
    21     9    39    1
    22     9    40    1
    23    10    11    1
    24    10    12    1
    25    10    28    1
    26    12    13    2
    27    12    14   am
    28    14    15    1
    29    14    41    1
    30    15    27   ar
    31    15    16   ar
    32    16    17   ar
    33    16    42    1
    34    17    18   ar
    35    17    43    1
    36    18    19   ar
    37    18    44    1
    38    19    20    1
    39    19    27   ar
    40    20    25   am
    41    20    21    1
    42    21    22    1
    43    21    45    1
    44    21    46    1
    45    22    23    1
    46    22    47    1
    47    22    48    1
    48    23    24    1
    49    23    49    1
    50    23    50    1
    51    24    25   am
    52    24    51    1
    53    25    26    2
    54    27    52    1
    55    28    29   ar
    56    29    53    1
@<TRIPOS>SUBSTRUCTURE
     1 ZINC000653668607        1 TEMP              0 ****  ****    0 ROOT


##########                                Name:    ZINC000444205493
##########                DOCK_Rotatable_Bonds:                   4
##########                         Heavy_Atoms:                  24
##########                    Molecular_Weight:             415.351
##########                DOCK_Rotatable_Bonds:                   4
##########                       Formal_Charge:         -0.00999995
##########                     HBond_Acceptors:                   6
##########                        HBond_Donors:                   1
##########                         Heavy_Atoms:                  24
##########                          Grid_Score:          -24.090015
##########                     Grid_vdw_energy:          -24.241188
##########                      Grid_es_energy:            0.151173
##########           Internal_energy_repulsive:          155.697968

@<TRIPOS>MOLECULE
ZINC000444205493
 47 49 1 0 0
SMALL
USER_CHARGES


@<TRIPOS>ATOM
      1 C1         -6.4754    5.6779   54.0558 C.3     1  ZINC000444205493   -0.1700
      2 C2         -5.3891    5.6031   53.0141 C.2     1  ZINC000444205493    0.5100
      3 O3         -4.6479    6.5476   52.8419 O.2     1  ZINC000444205493   -0.5100
      4 N4         -5.2412    4.4867   52.2736 N.am    1  ZINC000444205493   -0.6800
      5 C5         -4.2323    4.4173   51.3060 C.ar    1  ZINC000444205493    0.2300
      6 C6         -3.3991    5.5065   51.0904 C.ar    1  ZINC000444205493   -0.1400
      7 C7         -2.4037    5.4347   50.1350 C.ar    1  ZINC000444205493    0.0200
      8 C8         -2.2369    4.2799   49.3934 C.ar    1  ZINC000444205493   -0.6900
      9 S9         -0.9664    4.1932   48.1756 S.o2    1  ZINC000444205493    2.7100
     10 O10        -1.4835    3.4060   47.1116 O.2     1  ZINC000444205493   -0.9500
     11 O11        -0.4880    5.5198   47.9997 O.2     1  ZINC000444205493   -0.9500
     12 N12         0.2839    3.3285   48.8322 N.am    1  ZINC000444205493   -1.0100
     13 C13         1.0347    3.6908   50.0493 C.3     1  ZINC000444205493    0.1200
     14 C14         1.6150    2.3519   50.5749 C.3     1  ZINC000444205493   -0.1200
     15 C15         1.9377    1.6196   49.2580 C.3     1  ZINC000444205493   -0.0700
     16 C16         3.3232    2.0166   48.7379 C.3     1  ZINC000444205493   -0.1100
     17 C17         4.2419    0.8549   49.1996 C.3     1  ZINC000444205493   -0.1200
     18 C18         3.3340   -0.3903   49.0349 C.3     1  ZINC000444205493   -0.1000
     19 H19         3.3263   -0.7221   47.9966 H       1  ZINC000444205493    0.0700
     20 C20         3.8035   -1.5204   49.9531 C.3     1  ZINC000444205493   -0.1500
     21 C21         1.9312    0.1041   49.4550 C.3     1  ZINC000444205493   -0.1100
     22 C22         0.8269    2.0662   48.3017 C.3     1  ZINC000444205493    0.1300
     23 C23        -3.0646    3.1925   49.6055 C.ar    1  ZINC000444205493    0.0300
     24 C24        -4.0586    3.2557   50.5631 C.ar    1  ZINC000444205493   -0.1500
     25 Br25       -5.1901    1.7685   50.8527 Br      1  ZINC000444205493   -0.0300
     26 H26        -6.4398    6.6493   54.5488 H       1  ZINC000444205493    0.1000
     27 H27        -7.4466    5.5482   53.5781 H       1  ZINC000444205493    0.1000
     28 H28        -6.3257    4.8901   54.7941 H       1  ZINC000444205493    0.1000
     29 H29        -5.8341    3.7314   52.4112 H       1  ZINC000444205493    0.4200
     30 H30        -3.5291    6.4093   51.6688 H       1  ZINC000444205493    0.1600
     31 H31        -1.7554    6.2820   49.9671 H       1  ZINC000444205493    0.1500
     32 H32         1.8404    4.3833   49.8054 H       1  ZINC000444205493    0.0800
     33 H33         0.3667    4.1309   50.7896 H       1  ZINC000444205493    0.0800
     34 H34         2.5190    2.5206   51.1602 H       1  ZINC000444205493    0.0900
     35 H35         0.8720    1.8045   51.1549 H       1  ZINC000444205493    0.0800
     36 H36         3.3168    2.0900   47.6504 H       1  ZINC000444205493    0.0700
     37 H37         3.6437    2.9580   49.1839 H       1  ZINC000444205493    0.0700
     38 H38         5.1202    0.7795   48.5585 H       1  ZINC000444205493    0.0700
     39 H39         4.5336    0.9846   50.2418 H       1  ZINC000444205493    0.0700
     40 H40         3.7870   -1.1783   50.9879 H       1  ZINC000444205493    0.0500
     41 H41         3.1393   -2.3776   49.8432 H       1  ZINC000444205493    0.0500
     42 H42         4.8187   -1.8106   49.6825 H       1  ZINC000444205493    0.0500
     43 H43         1.7467   -0.1370   50.5018 H       1  ZINC000444205493    0.0700
     44 H44         1.1684   -0.3525   48.8245 H       1  ZINC000444205493    0.0700
     45 H45         0.0455    1.3076   48.2590 H       1  ZINC000444205493    0.0700
     46 H46         1.2381    2.2337   47.3062 H       1  ZINC000444205493    0.0800
     47 H47        -2.9314    2.2917   49.0248 H       1  ZINC000444205493    0.1500
@<TRIPOS>BOND
     1     1     2    1
     2     1    26    1
     3     1    27    1
     4     1    28    1
     5     2     3    2
     6     2     4   am
     7     4     5    1
     8     4    29    1
     9     5    24   ar
    10     5     6   ar
    11     6     7   ar
    12     6    30    1
    13     7     8   ar
    14     7    31    1
    15     8     9    1
    16     8    23   ar
    17     9    10    2
    18     9    11    2
    19     9    12   am
    20    12    22    1
    21    12    13    1
    22    13    14    1
    23    13    32    1
    24    13    33    1
    25    14    15    1
    26    14    34    1
    27    14    35    1
    28    15    21    1
    29    15    16    1
    30    15    22    1
    31    16    17    1
    32    16    36    1
    33    16    37    1
    34    17    18    1
    35    17    38    1
    36    17    39    1
    37    18    19    1
    38    18    20    1
    39    18    21    1
    40    20    40    1
    41    20    41    1
    42    20    42    1
    43    21    43    1
    44    21    44    1
    45    22    45    1
    46    22    46    1
    47    23    24   ar
    48    23    47    1
    49    24    25    1
@<TRIPOS>SUBSTRUCTURE
     1 ZINC000444205493        1 TEMP              0 ****  ****    0 ROOT


##########                                Name:    ZINC001039666729
##########                DOCK_Rotatable_Bonds:                   3
##########                         Heavy_Atoms:                  25
##########                    Molecular_Weight:             344.376
##########                DOCK_Rotatable_Bonds:                   3
##########                       Formal_Charge:          -0.0199998
##########                     HBond_Acceptors:                  10
##########                        HBond_Donors:                   2
##########                         Heavy_Atoms:                  25
##########                          Grid_Score:          -24.029333
##########                     Grid_vdw_energy:          -23.980114
##########                      Grid_es_energy:           -0.049219
##########           Internal_energy_repulsive:           67.785416

@<TRIPOS>MOLECULE
ZINC001039666729
 45 47 1 0 0
SMALL
USER_CHARGES


@<TRIPOS>ATOM
      1 C1        -10.3180    4.0882   60.3253 C.3     1  ZINC001039666729   -0.1100
      2 C2         -9.6606    2.8157   59.8565 C.ar    1  ZINC001039666729    0.2200
      3 C3         -8.5422    2.8639   59.0397 C.ar    1  ZINC001039666729   -0.3000
      4 C4         -7.9682    1.6701   58.6309 C.ar    1  ZINC001039666729    0.1900
      5 N5         -8.5018    0.5276   59.0302 N.ar    1  ZINC001039666729   -0.5800
      6 C6         -9.5719    0.5164   59.8115 C.ar    1  ZINC001039666729    0.6000
      7 N7        -10.1041   -0.6973   60.2109 N.pl3   1  ZINC001039666729   -0.5900
      8 C8        -10.6682   -0.9489   61.5722 C.3     1  ZINC001039666729    0.1200
      9 C9        -12.0902   -0.3842   61.6022 C.3     1  ZINC001039666729    0.0900
     10 N10       -12.9086   -1.1230   60.6086 N.am    1  ZINC001039666729   -0.7400
     11 C11       -13.0503   -0.4853   59.4043 C.2     1  ZINC001039666729    0.5200
     12 O12       -12.5318    0.5935   59.2089 O.2     1  ZINC001039666729   -0.5200
     13 C13       -13.8649   -1.1549   58.3276 C.3     1  ZINC001039666729   -0.1500
     14 C14       -12.9801   -1.4166   57.1070 C.3     1  ZINC001039666729    0.1100
     15 N15       -11.8141   -2.2297   57.5395 N.am    1  ZINC001039666729   -0.6100
     16 C16       -11.8366   -3.5770   57.5670 C.2     1  ZINC001039666729    0.6100
     17 O17       -10.8546   -4.1940   57.9310 O.2     1  ZINC001039666729   -0.5200
     18 C18       -13.0555   -4.3044   57.1546 C.2     1  ZINC001039666729   -0.0400
     19 N19       -13.1535   -5.5847   56.8303 N.2     1  ZINC001039666729   -0.2500
     20 N20       -14.3780   -5.8374   56.5299 N.pl3   1  ZINC001039666729   -0.2300
     21 N21       -15.1077   -4.7850   56.6375 N.2     1  ZINC001039666729   -0.2800
     22 C22       -14.3586   -3.7827   57.0298 C.2     1  ZINC001039666729    0.0400
     23 C23       -10.6211   -1.4389   57.9386 C.3     1  ZINC001039666729    0.1100
     24 C24       -10.1843   -1.8999   59.3267 C.3     1  ZINC001039666729    0.1300
     25 N25       -10.1412    1.6392   60.2241 N.ar    1  ZINC001039666729   -0.5700
     26 H26        -9.8673    4.4048   61.2659 H       1  ZINC001039666729    0.0800
     27 H27       -10.1785    4.8669   59.5754 H       1  ZINC001039666729    0.0800
     28 H28       -11.3836    3.9133   60.4738 H       1  ZINC001039666729    0.0800
     29 H29        -8.1270    3.8109   58.7280 H       1  ZINC001039666729    0.1400
     30 H30        -7.0961    1.6729   57.9939 H       1  ZINC001039666729    0.1600
     31 H31       -10.6926   -2.0206   61.7693 H       1  ZINC001039666729    0.0800
     32 H32       -10.0567   -0.4487   62.3233 H       1  ZINC001039666729    0.0900
     33 H33       -12.5156   -0.5137   62.5973 H       1  ZINC001039666729    0.0800
     34 H34       -12.0699    0.6751   61.3462 H       1  ZINC001039666729    0.1000
     35 H35       -13.3100   -1.9859   60.7964 H       1  ZINC001039666729    0.4100
     36 H36       -14.2552   -2.1010   58.7029 H       1  ZINC001039666729    0.0800
     37 H37       -14.6940   -0.5070   58.0433 H       1  ZINC001039666729    0.1100
     38 H38       -13.5476   -1.9607   56.3521 H       1  ZINC001039666729    0.1100
     39 H39       -12.6341   -0.4688   56.6945 H       1  ZINC001039666729    0.0900
     40 H40       -14.7076   -6.7080   56.2574 H       1  ZINC001039666729    0.4700
     41 H41       -14.6737   -2.7659   57.2123 H       1  ZINC001039666729    0.2100
     42 H42        -9.8153   -1.6036   57.2233 H       1  ZINC001039666729    0.0800
     43 H43       -10.8759   -0.3795   57.9679 H       1  ZINC001039666729    0.1200
     44 H44        -9.2048   -2.3742   59.2665 H       1  ZINC001039666729    0.0700
     45 H45       -10.9125   -2.6053   59.7271 H       1  ZINC001039666729    0.0900
@<TRIPOS>BOND
     1     1     2    1
     2     1    26    1
     3     1    27    1
     4     1    28    1
     5     2    25   ar
     6     2     3   ar
     7     3     4   ar
     8     3    29    1
     9     4     5   ar
    10     4    30    1
    11     5     6   ar
    12     6     7    1
    13     6    25   ar
    14     7    24    1
    15     7     8    1
    16     8     9    1
    17     8    31    1
    18     8    32    1
    19     9    10    1
    20     9    33    1
    21     9    34    1
    22    10    11   am
    23    10    35    1
    24    11    12    2
    25    11    13    1
    26    13    14    1
    27    13    36    1
    28    13    37    1
    29    14    15    1
    30    14    38    1
    31    14    39    1
    32    15    16   am
    33    15    23    1
    34    16    17    2
    35    16    18    1
    36    18    22    1
    37    18    19    2
    38    19    20    1
    39    20    21    1
    40    20    40    1
    41    21    22    2
    42    22    41    1
    43    23    24    1
    44    23    42    1
    45    23    43    1
    46    24    44    1
    47    24    45    1
@<TRIPOS>SUBSTRUCTURE
     1 ZINC001039666729        1 TEMP              0 ****  ****    0 ROOT


##########                                Name:    ZINC000004040798
##########                DOCK_Rotatable_Bonds:                   3
##########                         Heavy_Atoms:                  22
##########                    Molecular_Weight:             361.151
##########                DOCK_Rotatable_Bonds:                   3
##########                       Formal_Charge:           0.0200003
##########                     HBond_Acceptors:                   6
##########                        HBond_Donors:                   1
##########                         Heavy_Atoms:                  22
##########                          Grid_Score:          -23.983416
##########                     Grid_vdw_energy:          -23.769400
##########                      Grid_es_energy:           -0.214015
##########           Internal_energy_repulsive:            1.937324

@<TRIPOS>MOLECULE
ZINC000004040798
 31 33 1 0 0
SMALL
USER_CHARGES


@<TRIPOS>ATOM
      1 O1         -6.2807    1.0634   50.1381 O.2     1  ZINC000004040798   -0.4800
      2 C2         -5.8554    1.7765   51.0274 C.2     1  ZINC000004040798    0.6100
      3 N3         -6.6062    2.0087   52.1223 N.am    1  ZINC000004040798   -0.6600
      4 C4         -7.8765    1.4346   52.2337 C.ar    1  ZINC000004040798    0.2300
      5 C5         -8.0062    0.0825   52.5219 C.ar    1  ZINC000004040798   -0.1300
      6 C6         -9.2625   -0.4817   52.6311 C.ar    1  ZINC000004040798   -0.0100
      7 C7        -10.3903    0.2980   52.4538 C.ar    1  ZINC000004040798   -0.0600
      8 N8        -11.7346   -0.3103   52.5717 N.pl3   1  ZINC000004040798    0.0300
      9 O9        -11.8462   -1.4966   52.8246 O.2     1  ZINC000004040798   -0.1500
     10 O10       -12.7292    0.3753   52.4159 O.2     1  ZINC000004040798   -0.1500
     11 C11       -10.2656    1.6453   52.1672 C.ar    1  ZINC000004040798    0.0000
     12 C12        -9.0123    2.2173   52.0616 C.ar    1  ZINC000004040798   -0.1400
     13 Br13       -8.8422    4.0593   51.6696 Br      1  ZINC000004040798    0.0000
     14 C14        -4.5207    2.3798   50.9104 C.2     1  ZINC000004040798   -0.0500
     15 C15        -3.8791    2.6374   49.7412 C.2     1  ZINC000004040798   -0.0800
     16 C16        -2.5940    3.2321   50.1068 C.ar    1  ZINC000004040798   -0.1500
     17 C17        -1.4999    3.7083   49.3809 C.ar    1  ZINC000004040798   -0.0500
     18 C18        -0.4186    4.2190   50.0425 C.ar    1  ZINC000004040798   -0.1400
     19 C19        -0.4010    4.2668   51.4295 C.ar    1  ZINC000004040798   -0.0700
     20 C20        -1.4706    3.8020   52.1642 C.ar    1  ZINC000004040798   -0.1100
     21 C21        -2.5817    3.2786   51.5135 C.ar    1  ZINC000004040798    0.0800
     22 O22        -3.7497    2.7668   51.9482 O.3     1  ZINC000004040798   -0.1900
     23 H23        -6.2654    2.5740   52.8331 H       1  ZINC000004040798    0.4300
     24 H24        -7.1258   -0.5276   52.6601 H       1  ZINC000004040798    0.1800
     25 H25        -9.3637   -1.5334   52.8549 H       1  ZINC000004040798    0.1700
     26 H26       -11.1486    2.2516   52.0292 H       1  ZINC000004040798    0.1700
     27 H27        -4.2439    2.4421   48.7436 H       1  ZINC000004040798    0.1800
     28 H28        -1.5082    3.6728   48.3015 H       1  ZINC000004040798    0.1400
     29 H29         0.4280    4.5874   49.4823 H       1  ZINC000004040798    0.1400
     30 H30         0.4607    4.6724   51.9388 H       1  ZINC000004040798    0.1400
     31 H31        -1.4456    3.8447   53.2430 H       1  ZINC000004040798    0.1400
@<TRIPOS>BOND
     1     1     2    2
     2     2     3   am
     3     2    14    1
     4     3     4    1
     5     3    23    1
     6     4    12   ar
     7     4     5   ar
     8     5     6   ar
     9     5    24    1
    10     6     7   ar
    11     6    25    1
    12     7     8    1
    13     7    11   ar
    14     8     9    2
    15     8    10    2
    16    11    12   ar
    17    11    26    1
    18    12    13    1
    19    14    22    1
    20    14    15    2
    21    15    16    1
    22    15    27    1
    23    16    21   ar
    24    16    17   ar
    25    17    18   ar
    26    17    28    1
    27    18    19   ar
    28    18    29    1
    29    19    20   ar
    30    19    30    1
    31    20    21   ar
    32    20    31    1
    33    21    22    1
@<TRIPOS>SUBSTRUCTURE
     1 ZINC000004040798        1 TEMP              0 ****  ****    0 ROOT


##########                                Name:    ZINC000055987960
##########                DOCK_Rotatable_Bonds:                   6
##########                         Heavy_Atoms:                  28
##########                    Molecular_Weight:             404.868
##########                DOCK_Rotatable_Bonds:                   6
##########                       Formal_Charge:          0.00999941
##########                     HBond_Acceptors:                   7
##########                        HBond_Donors:                   1
##########                         Heavy_Atoms:                  28
##########                          Grid_Score:          -23.962982
##########                     Grid_vdw_energy:          -24.017138
##########                      Grid_es_energy:            0.054156
##########           Internal_energy_repulsive:           14.739438

@<TRIPOS>MOLECULE
ZINC000055987960
 50 52 1 0 0
SMALL
USER_CHARGES


@<TRIPOS>ATOM
      1 C1         -9.3649    4.0677   53.9972 C.3     1  ZINC000055987960   -0.1800
      2 C2        -10.2229    3.8368   52.7516 C.3     1  ZINC000055987960    0.0700
      3 H3        -10.5126    4.7976   52.3260 H       1  ZINC000055987960    0.1200
      4 C4         -9.4199    3.0399   51.7173 C.3     1  ZINC000055987960    0.0800
      5 N5         -9.2022    1.6832   52.2438 N.am    1  ZINC000055987960   -0.6100
      6 C6         -7.9706    1.1363   52.2646 C.2     1  ZINC000055987960    0.5700
      7 O7         -7.8112    0.0138   52.7039 O.2     1  ZINC000055987960   -0.5300
      8 C8         -6.8153    1.9001   51.7544 C.ar    1  ZINC000055987960   -0.1500
      9 C9         -6.2892    2.9570   52.5021 C.ar    1  ZINC000055987960   -0.0700
     10 C10        -5.2112    3.6671   52.0234 C.ar    1  ZINC000055987960   -0.1500
     11 C11        -4.6456    3.3335   50.7967 C.ar    1  ZINC000055987960    0.1700
     12 N12        -3.5537    4.0545   50.3151 N.am    1  ZINC000055987960   -0.6700
     13 C13        -2.3004    3.6624   50.6186 C.2     1  ZINC000055987960    0.5200
     14 O14        -2.1225    2.6824   51.3106 O.2     1  ZINC000055987960   -0.5000
     15 C15        -1.1201    4.4415   50.0981 C.3     1  ZINC000055987960   -0.1100
     16 C16         0.0341    3.5034   49.8565 C.ar    1  ZINC000055987960   -0.1000
     17 C17         1.1663    3.5798   50.6491 C.ar    1  ZINC000055987960    0.1300
     18 F18         1.2372    4.4957   51.6398 F       1  ZINC000055987960   -0.1300
     19 C19         2.2262    2.7167   50.4263 C.ar    1  ZINC000055987960   -0.1500
     20 C20         2.1531    1.7799   49.4133 C.ar    1  ZINC000055987960   -0.0700
     21 C21         1.0223    1.7034   48.6215 C.ar    1  ZINC000055987960   -0.1200
     22 C22        -0.0395    2.5613   48.8461 C.ar    1  ZINC000055987960    0.0000
     23 Cl23       -1.4593    2.4640   47.8518 Cl      1  ZINC000055987960   -0.0500
     24 C24        -5.1670    2.2818   50.0498 C.ar    1  ZINC000055987960   -0.1200
     25 C25        -6.2415    1.5643   50.5251 C.ar    1  ZINC000055987960   -0.0500
     26 C26       -10.3690    0.9412   52.7475 C.3     1  ZINC000055987960    0.0600
     27 C27       -11.1258    1.8405   53.7317 C.3     1  ZINC000055987960    0.0700
     28 H28       -10.5177    1.9977   54.6225 H       1  ZINC000055987960    0.0700
     29 C29       -12.4447    1.1719   54.1244 C.3     1  ZINC000055987960   -0.1500
     30 O30       -11.3947    3.1000   53.1088 O.3     1  ZINC000055987960   -0.3700
     31 H31        -9.0756    3.1066   54.4223 H       1  ZINC000055987960    0.0600
     32 H32        -8.4708    4.6280   53.7238 H       1  ZINC000055987960    0.0700
     33 H33        -9.9371    4.6328   54.7329 H       1  ZINC000055987960    0.0700
     34 H34        -9.9774    2.9857   50.7822 H       1  ZINC000055987960    0.0800
     35 H35        -8.4593    3.5253   51.5449 H       1  ZINC000055987960    0.1000
     36 H36        -6.7278    3.2167   53.4541 H       1  ZINC000055987960    0.1400
     37 H37        -4.8043    4.4843   52.6005 H       1  ZINC000055987960    0.1300
     38 H38        -3.6960    4.8383   49.7617 H       1  ZINC000055987960    0.4200
     39 H39        -1.3921    4.9315   49.1631 H       1  ZINC000055987960    0.1200
     40 H40        -0.8296    5.1939   50.8313 H       1  ZINC000055987960    0.1200
     41 H41         3.1100    2.7761   51.0442 H       1  ZINC000055987960    0.1500
     42 H42         2.9799    1.1072   49.2396 H       1  ZINC000055987960    0.1500
     43 H43         0.9663    0.9711   47.8298 H       1  ZINC000055987960    0.1400
     44 H44        -4.7260    2.0257   49.0978 H       1  ZINC000055987960    0.1500
     45 H45        -6.6458    0.7480   49.9449 H       1  ZINC000055987960    0.1300
     46 H46       -11.0220    0.6758   51.9161 H       1  ZINC000055987960    0.0800
     47 H47       -10.0369    0.0370   53.2573 H       1  ZINC000055987960    0.1100
     48 H48       -12.2386    0.2109   54.5956 H       1  ZINC000055987960    0.0700
     49 H49       -12.9822    1.8119   54.8242 H       1  ZINC000055987960    0.0700
     50 H50       -13.0529    1.0167   53.2333 H       1  ZINC000055987960    0.0700
@<TRIPOS>BOND
     1     1     2    1
     2     1    31    1
     3     1    32    1
     4     1    33    1
     5     2     3    1
     6     2    30    1
     7     2     4    1
     8     4     5    1
     9     4    34    1
    10     4    35    1
    11     5     6   am
    12     5    26    1
    13     6     7    2
    14     6     8    1
    15     8    25   ar
    16     8     9   ar
    17     9    10   ar
    18     9    36    1
    19    10    11   ar
    20    10    37    1
    21    11    12    1
    22    11    24   ar
    23    12    13   am
    24    12    38    1
    25    13    14    2
    26    13    15    1
    27    15    16    1
    28    15    39    1
    29    15    40    1
    30    16    22   ar
    31    16    17   ar
    32    17    18    1
    33    17    19   ar
    34    19    20   ar
    35    19    41    1
    36    20    21   ar
    37    20    42    1
    38    21    22   ar
    39    21    43    1
    40    22    23    1
    41    24    25   ar
    42    24    44    1
    43    25    45    1
    44    26    27    1
    45    26    46    1
    46    26    47    1
    47    27    28    1
    48    27    29    1
    49    27    30    1
    50    29    48    1
    51    29    49    1
    52    29    50    1
@<TRIPOS>SUBSTRUCTURE
     1 ZINC000055987960        1 TEMP              0 ****  ****    0 ROOT


##########                                Name:    ZINC000469391664
##########                DOCK_Rotatable_Bonds:                   6
##########                         Heavy_Atoms:                  29
##########                    Molecular_Weight:             408.524
##########                DOCK_Rotatable_Bonds:                   6
##########                       Formal_Charge:         -0.00999999
##########                     HBond_Acceptors:                   7
##########                        HBond_Donors:                   0
##########                         Heavy_Atoms:                  29
##########                          Grid_Score:          -23.903967
##########                     Grid_vdw_energy:          -23.993856
##########                      Grid_es_energy:            0.089890
##########           Internal_energy_repulsive:           18.227966

@<TRIPOS>MOLECULE
ZINC000469391664
 53 56 1 0 0
SMALL
USER_CHARGES


@<TRIPOS>ATOM
      1 C1        -18.4489   -2.0220   59.5783 C.3     1  ZINC000469391664   -0.1500
      2 C2        -17.3469   -1.5042   58.6518 C.3     1  ZINC000469391664   -0.1000
      3 H3        -17.2227   -0.4314   58.7994 H       1  ZINC000469391664    0.0800
      4 C4        -17.7342   -1.7773   57.1966 C.3     1  ZINC000469391664   -0.1300
      5 C5        -16.6450   -1.2268   56.2706 C.3     1  ZINC000469391664    0.1100
      6 N6        -15.3519   -1.7997   56.6686 N.am    1  ZINC000469391664   -0.6100
      7 C7        -14.5730   -2.4292   55.7667 C.2     1  ZINC000469391664    0.5600
      8 O8        -14.9383   -2.5272   54.6110 O.2     1  ZINC000469391664   -0.5000
      9 C9        -13.2773   -2.9992   56.1815 C.ar    1  ZINC000469391664   -0.1100
     10 C10       -13.2370   -4.1355   56.9924 C.ar    1  ZINC000469391664   -0.0900
     11 C11       -12.0231   -4.6636   57.3762 C.ar    1  ZINC000469391664   -0.1000
     12 C12       -10.8405   -4.0726   56.9620 C.ar    1  ZINC000469391664   -0.0900
     13 C13       -10.8642   -2.9487   56.1607 C.ar    1  ZINC000469391664   -0.1000
     14 C14       -12.0776   -2.4063   55.7590 C.ar    1  ZINC000469391664    0.1500
     15 N15       -12.1040   -1.2733   54.9511 N.am    1  ZINC000469391664   -0.5800
     16 C16       -12.2548    0.0531   55.5543 C.3     1  ZINC000469391664    0.0900
     17 C17       -11.9908   -1.3966   53.6137 C.2     1  ZINC000469391664    0.6100
     18 O18       -11.8657   -2.4986   53.1126 O.2     1  ZINC000469391664   -0.5200
     19 C19       -12.0186   -0.2038   52.7631 C.2     1  ZINC000469391664   -0.2600
     20 C20       -11.0874    0.7969   52.7702 C.2     1  ZINC000469391664   -0.0500
     21 C21       -11.3589    1.7981   51.8683 C.2     1  ZINC000469391664   -0.1500
     22 C22       -12.4726    1.6258   51.1467 C.2     1  ZINC000469391664   -0.2600
     23 S23       -13.2508    0.1661   51.5646 S.3     1  ZINC000469391664    0.2300
     24 C24       -14.9239   -1.6730   58.0684 C.3     1  ZINC000469391664    0.1000
     25 C25       -16.0324   -2.2187   58.9740 C.3     1  ZINC000469391664    0.1300
     26 H26       -16.1483   -3.2890   58.8027 H       1  ZINC000469391664    0.1000
     27 N27       -15.6787   -1.9834   60.3761 N.pl3   1  ZINC000469391664   -0.4500
     28 C28       -15.4585   -2.9402   61.3298 C.2     1  ZINC000469391664   -0.0500
     29 C29       -15.1611   -2.2910   62.4716 C.2     1  ZINC000469391664   -0.0300
     30 N30       -15.1987   -0.9738   62.2219 N.2     1  ZINC000469391664   -0.4900
     31 C31       -15.5030   -0.7821   60.9674 C.2     1  ZINC000469391664    0.1800
     32 H32       -18.1735   -1.8271   60.6148 H       1  ZINC000469391664    0.0600
     33 H33       -19.3851   -1.5128   59.3492 H       1  ZINC000469391664    0.0600
     34 H34       -18.5732   -3.0947   59.4309 H       1  ZINC000469391664    0.0600
     35 H35       -17.8341   -2.8516   57.0422 H       1  ZINC000469391664    0.0700
     36 H36       -18.6822   -1.2875   56.9744 H       1  ZINC000469391664    0.0900
     37 H37       -16.8664   -1.5051   55.2403 H       1  ZINC000469391664    0.1000
     38 H38       -16.6058   -0.1409   56.3576 H       1  ZINC000469391664    0.0800
     39 H39       -14.1559   -4.5996   57.3186 H       1  ZINC000469391664    0.1400
     40 H40       -11.9936   -5.5424   58.0032 H       1  ZINC000469391664    0.1400
     41 H41        -9.8942   -4.4935   57.2682 H       1  ZINC000469391664    0.1400
     42 H42        -9.9381   -2.4936   55.8423 H       1  ZINC000469391664    0.1400
     43 H43       -11.2713    0.4997   55.7006 H       1  ZINC000469391664    0.0600
     44 H44       -12.8472    0.6871   54.8946 H       1  ZINC000469391664    0.0900
     45 H45       -12.7581   -0.0404   56.5165 H       1  ZINC000469391664    0.0700
     46 H46       -10.2247    0.8008   53.4199 H       1  ZINC000469391664    0.1500
     47 H47       -10.7200    2.6611   51.7509 H       1  ZINC000469391664    0.1400
     48 H48       -12.8291    2.3166   50.3969 H       1  ZINC000469391664    0.1600
     49 H49       -14.0097   -2.2457   58.2243 H       1  ZINC000469391664    0.1000
     50 H50       -14.7444   -0.6236   58.3021 H       1  ZINC000469391664    0.0800
     51 H51       -15.5133   -4.0101   61.1930 H       1  ZINC000469391664    0.1700
     52 H52       -14.9325   -2.7506   63.4219 H       1  ZINC000469391664    0.1700
     53 H53       -15.6044    0.1784   60.4839 H       1  ZINC000469391664    0.2000
@<TRIPOS>BOND
     1     1     2    1
     2     1    32    1
     3     1    33    1
     4     1    34    1
     5     2     3    1
     6     2    25    1
     7     2     4    1
     8     4     5    1
     9     4    35    1
    10     4    36    1
    11     5     6    1
    12     5    37    1
    13     5    38    1
    14     6     7   am
    15     6    24    1
    16     7     8    2
    17     7     9    1
    18     9    14   ar
    19     9    10   ar
    20    10    11   ar
    21    10    39    1
    22    11    12   ar
    23    11    40    1
    24    12    13   ar
    25    12    41    1
    26    13    14   ar
    27    13    42    1
    28    14    15    1
    29    15    16    1
    30    15    17   am
    31    16    43    1
    32    16    44    1
    33    16    45    1
    34    17    18    2
    35    17    19    1
    36    19    23    1
    37    19    20    2
    38    20    21    1
    39    20    46    1
    40    21    22    2
    41    21    47    1
    42    22    23    1
    43    22    48    1
    44    24    25    1
    45    24    49    1
    46    24    50    1
    47    25    26    1
    48    25    27    1
    49    27    31    1
    50    27    28    1
    51    28    29    2
    52    28    51    1
    53    29    30    1
    54    29    52    1
    55    30    31    2
    56    31    53    1
@<TRIPOS>SUBSTRUCTURE
     1 ZINC000469391664        1 TEMP              0 ****  ****    0 ROOT


##########                                Name:    ZINC000560467340
##########                DOCK_Rotatable_Bonds:                   7
##########                         Heavy_Atoms:                  24
##########                    Molecular_Weight:             369.481
##########                DOCK_Rotatable_Bonds:                   7
##########                       Formal_Charge:          -0.0199997
##########                     HBond_Acceptors:                   7
##########                        HBond_Donors:                   2
##########                         Heavy_Atoms:                  24
##########                          Grid_Score:          -23.806353
##########                     Grid_vdw_energy:          -22.833872
##########                      Grid_es_energy:           -0.972481
##########           Internal_energy_repulsive:           17.953156

@<TRIPOS>MOLECULE
ZINC000560467340
 44 46 1 0 0
SMALL
USER_CHARGES


@<TRIPOS>ATOM
      1 O1         -0.9836    1.1241   46.5358 O.2     1  ZINC000560467340   -0.9600
      2 S2         -0.1405    2.2003   46.1480 S.o2    1  ZINC000560467340    2.7100
      3 O3         -0.3763    2.9957   44.9943 O.2     1  ZINC000560467340   -0.9500
      4 N4         -0.0927    3.2434   47.4334 N.am    1  ZINC000560467340   -1.0900
      5 C5          0.2766    2.7511   48.7628 C.3     1  ZINC000560467340    0.1400
      6 C6          0.6602    3.9327   49.6559 C.3     1  ZINC000560467340   -0.0500
      7 C7         -0.5436    4.8575   49.8466 C.3     1  ZINC000560467340   -0.0700
      8 C8         -1.7298    4.0497   50.3066 C.ar    1  ZINC000560467340   -0.0900
      9 C9         -1.9430    3.8431   51.6567 C.ar    1  ZINC000560467340   -0.0900
     10 C10        -3.0304    3.1025   52.0797 C.ar    1  ZINC000560467340   -0.1500
     11 C11        -3.9068    2.5677   51.1505 C.ar    1  ZINC000560467340    0.1000
     12 F12        -4.9704    1.8440   51.5629 F       1  ZINC000560467340   -0.1400
     13 C13        -3.6925    2.7758   49.7986 C.ar    1  ZINC000560467340   -0.1500
     14 C14        -2.6070    3.5208   49.3781 C.ar    1  ZINC000560467340   -0.0900
     15 C15         1.8325    4.7126   49.0257 C.3     1  ZINC000560467340   -0.1300
     16 C16         2.6978    5.1417   50.2366 C.3     1  ZINC000560467340   -0.1200
     17 C17         2.6102    3.9108   51.1727 C.3     1  ZINC000560467340   -0.1600
     18 C18         1.1547    3.4229   51.0209 C.3     1  ZINC000560467340    0.1100
     19 H19         0.5376    3.8351   51.8193 H       1  ZINC000560467340    0.0600
     20 O20         1.1108    1.9950   51.0564 O.3     1  ZINC000560467340   -0.5500
     21 C21         1.4763    1.5244   45.9644 C.2     1  ZINC000560467340   -0.6900
     22 C22         1.8108    0.3246   46.4416 C.2     1  ZINC000560467340   -0.1000
     23 S23         3.4971   -0.0091   46.0697 S.3     1  ZINC000560467340    0.1500
     24 C24         3.6579    1.5457   45.2631 C.2     1  ZINC000560467340   -0.2200
     25 C25         2.4941    2.1958   45.3090 C.2     1  ZINC000560467340   -0.0700
     26 H26        -0.3091    4.1803   47.3060 H       1  ZINC000560467340    0.4200
     27 H27        -0.5695    2.2229   49.2026 H       1  ZINC000560467340    0.0600
     28 H28         1.1240    2.0711   48.6760 H       1  ZINC000560467340    0.0800
     29 H29        -0.3062    5.6132   50.5954 H       1  ZINC000560467340    0.0800
     30 H30        -0.7807    5.3449   48.9009 H       1  ZINC000560467340    0.0800
     31 H31        -1.2593    4.2603   52.3812 H       1  ZINC000560467340    0.1300
     32 H32        -3.1964    2.9405   53.1345 H       1  ZINC000560467340    0.1400
     33 H33        -4.3751    2.3589   49.0729 H       1  ZINC000560467340    0.1400
     34 H34        -2.4397    3.6834   48.3236 H       1  ZINC000560467340    0.1300
     35 H35         2.4042    4.0681   48.3578 H       1  ZINC000560467340    0.0700
     36 H36         1.4646    5.5879   48.4904 H       1  ZINC000560467340    0.0800
     37 H37         3.7283    5.3219   49.9306 H       1  ZINC000560467340    0.0700
     38 H38         2.2770    6.0242   50.7186 H       1  ZINC000560467340    0.0700
     39 H39         3.3074    3.1370   50.8514 H       1  ZINC000560467340    0.0800
     40 H40         2.8098    4.2010   52.2042 H       1  ZINC000560467340    0.0700
     41 H41         1.0826    1.6244   51.9492 H       1  ZINC000560467340    0.3800
     42 H42         1.1476   -0.3403   46.9750 H       1  ZINC000560467340    0.1800
     43 H43         4.5597    1.9154   44.7979 H       1  ZINC000560467340    0.1700
     44 H44         2.3583    3.1752   44.8746 H       1  ZINC000560467340    0.1500
@<TRIPOS>BOND
     1     1     2    2
     2     2     3    2
     3     2     4   am
     4     2    21    1
     5     4     5    1
     6     4    26    1
     7     5     6    1
     8     5    27    1
     9     5    28    1
    10     6    18    1
    11     6     7    1
    12     6    15    1
    13     7     8    1
    14     7    29    1
    15     7    30    1
    16     8    14   ar
    17     8     9   ar
    18     9    10   ar
    19     9    31    1
    20    10    11   ar
    21    10    32    1
    22    11    12    1
    23    11    13   ar
    24    13    14   ar
    25    13    33    1
    26    14    34    1
    27    15    16    1
    28    15    35    1
    29    15    36    1
    30    16    17    1
    31    16    37    1
    32    16    38    1
    33    17    18    1
    34    17    39    1
    35    17    40    1
    36    18    19    1
    37    18    20    1
    38    20    41    1
    39    21    25    1
    40    21    22    2
    41    22    23    1
    42    22    42    1
    43    23    24    1
    44    24    25    2
    45    24    43    1
    46    25    44    1
@<TRIPOS>SUBSTRUCTURE
     1 ZINC000560467340        1 TEMP              0 ****  ****    0 ROOT


##########                                Name:    ZINC001179023006
##########                DOCK_Rotatable_Bonds:                   3
##########                         Heavy_Atoms:                  25
##########                    Molecular_Weight:             340.465
##########                DOCK_Rotatable_Bonds:                   3
##########                       Formal_Charge:          -0.0100005
##########                     HBond_Acceptors:                   4
##########                        HBond_Donors:                   1
##########                         Heavy_Atoms:                  25
##########                          Grid_Score:          -23.456955
##########                     Grid_vdw_energy:          -24.379068
##########                      Grid_es_energy:            0.922114
##########           Internal_energy_repulsive:           43.347084

@<TRIPOS>MOLECULE
ZINC001179023006
 53 56 1 0 0
SMALL
USER_CHARGES


@<TRIPOS>ATOM
      1 C1         -8.5047    0.8758   65.7196 C.3     1  ZINC001179023006   -0.1500
      2 C2         -8.0376    1.5595   64.4330 C.3     1  ZINC001179023006   -0.1100
      3 C3         -9.2006    2.3421   63.8201 C.3     1  ZINC001179023006   -0.1100
      4 C4         -9.1511    2.3806   62.3145 C.2     1  ZINC001179023006    0.5400
      5 O5         -8.9688    3.4334   61.7405 O.2     1  ZINC001179023006   -0.5400
      6 N6         -9.3091    1.2452   61.6056 N.am    1  ZINC001179023006   -0.5900
      7 C7         -9.2694    1.2670   60.1372 C.3     1  ZINC001179023006    0.1000
      8 C8        -10.5302    0.5985   59.5942 C.3     1  ZINC001179023006   -0.1200
      9 C9        -10.6535   -0.8114   60.1900 C.3     1  ZINC001179023006   -0.0500
     10 C10       -10.7937   -0.6881   61.7144 C.3     1  ZINC001179023006   -0.1100
     11 C11        -9.5305   -0.0381   62.2856 C.3     1  ZINC001179023006    0.0900
     12 C12       -11.8995   -1.4798   59.6308 C.3     1  ZINC001179023006   -0.0800
     13 C13       -11.8773   -1.5272   58.1337 C.ar    1  ZINC001179023006   -0.0700
     14 C14       -12.7270   -0.6805   57.4289 C.ar    1  ZINC001179023006   -0.1100
     15 C15       -12.6858   -0.6555   56.0488 C.ar    1  ZINC001179023006   -0.1100
     16 C16       -11.8041   -1.4701   55.3635 C.ar    1  ZINC001179023006   -0.1200
     17 C17       -10.9704   -2.3214   56.0666 C.ar    1  ZINC001179023006   -0.1000
     18 C18       -11.0274   -2.3441   57.4488 C.ar    1  ZINC001179023006   -0.1100
     19 C19       -10.1416   -3.2901   58.2187 C.3     1  ZINC001179023006    0.1400
     20 N20        -9.1947   -2.5778   59.0476 N.am    1  ZINC001179023006   -0.7000
     21 C21        -9.4140   -1.5875   59.8738 C.2     1  ZINC001179023006    0.5200
     22 O22        -8.4348   -1.2340   60.4959 O.2     1  ZINC001179023006   -0.5500
     23 C23        -9.4232    3.7205   64.4647 C.3     1  ZINC001179023006   -0.1200
     24 C24       -10.9327    3.4380   64.3566 C.3     1  ZINC001179023006   -0.1400
     25 C25       -10.5756    1.9424   64.3812 C.3     1  ZINC001179023006   -0.1300
     26 H26        -7.6665    0.3498   66.1765 H       1  ZINC001179023006    0.0600
     27 H27        -8.8840    1.6265   66.4128 H       1  ZINC001179023006    0.0500
     28 H28        -9.2965    0.1640   65.4859 H       1  ZINC001179023006    0.0600
     29 H29        -7.6940    0.8053   63.7250 H       1  ZINC001179023006    0.0700
     30 H30        -7.2198    2.2430   64.6611 H       1  ZINC001179023006    0.0700
     31 H31        -9.2255    2.2987   59.7883 H       1  ZINC001179023006    0.0900
     32 H32        -8.3916    0.7236   59.7874 H       1  ZINC001179023006    0.0800
     33 H33       -10.4688    0.5307   58.5081 H       1  ZINC001179023006    0.0800
     34 H34       -11.4026    1.1893   59.8734 H       1  ZINC001179023006    0.0800
     35 H35       -10.9219   -1.6791   62.1497 H       1  ZINC001179023006    0.0800
     36 H36       -11.6602   -0.0710   61.9524 H       1  ZINC001179023006    0.0800
     37 H37        -8.6752   -0.6927   62.1182 H       1  ZINC001179023006    0.1200
     38 H38        -9.6588    0.1322   63.3546 H       1  ZINC001179023006    0.0800
     39 H39       -11.9617   -2.4969   60.0179 H       1  ZINC001179023006    0.0800
     40 H40       -12.7782   -0.9227   59.9560 H       1  ZINC001179023006    0.0900
     41 H41       -13.4179   -0.0431   57.9607 H       1  ZINC001179023006    0.1200
     42 H42       -13.3452    0.0028   55.5029 H       1  ZINC001179023006    0.1200
     43 H43       -11.7662   -1.4419   54.2845 H       1  ZINC001179023006    0.1300
     44 H44       -10.2801   -2.9639   55.5401 H       1  ZINC001179023006    0.1300
     45 H45        -9.5959   -3.9188   57.5150 H       1  ZINC001179023006    0.0900
     46 H46       -10.7629   -3.9235   58.8519 H       1  ZINC001179023006    0.0800
     47 H47        -8.2734   -2.8739   58.9821 H       1  ZINC001179023006    0.4000
     48 H48        -9.0636    3.7855   65.4915 H       1  ZINC001179023006    0.0900
     49 H49        -9.0881    4.5517   63.8443 H       1  ZINC001179023006    0.0800
     50 H50       -11.3708    3.7669   63.4143 H       1  ZINC001179023006    0.0800
     51 H51       -11.5037    3.7648   65.2256 H       1  ZINC001179023006    0.0700
     52 H52       -11.1695    1.3404   63.6934 H       1  ZINC001179023006    0.0700
     53 H53       -10.5316    1.5204   65.3852 H       1  ZINC001179023006    0.0900
@<TRIPOS>BOND
     1     1     2    1
     2     1    26    1
     3     1    27    1
     4     1    28    1
     5     2     3    1
     6     2    29    1
     7     2    30    1
     8     3    25    1
     9     3     4    1
    10     3    23    1
    11     4     5    2
    12     4     6   am
    13     6    11    1
    14     6     7    1
    15     7     8    1
    16     7    31    1
    17     7    32    1
    18     8     9    1
    19     8    33    1
    20     8    34    1
    21     9    21    1
    22     9    10    1
    23     9    12    1
    24    10    11    1
    25    10    35    1
    26    10    36    1
    27    11    37    1
    28    11    38    1
    29    12    13    1
    30    12    39    1
    31    12    40    1
    32    13    18   ar
    33    13    14   ar
    34    14    15   ar
    35    14    41    1
    36    15    16   ar
    37    15    42    1
    38    16    17   ar
    39    16    43    1
    40    17    18   ar
    41    17    44    1
    42    18    19    1
    43    19    20    1
    44    19    45    1
    45    19    46    1
    46    20    21   am
    47    20    47    1
    48    21    22    2
    49    23    24    1
    50    23    48    1
    51    23    49    1
    52    24    25    1
    53    24    50    1
    54    24    51    1
    55    25    52    1
    56    25    53    1
@<TRIPOS>SUBSTRUCTURE
     1 ZINC001179023006        1 TEMP              0 ****  ****    0 ROOT


##########                                Name:    ZINC000616491533
##########                DOCK_Rotatable_Bonds:                   4
##########                         Heavy_Atoms:                  27
##########                    Molecular_Weight:             375.418
##########                DOCK_Rotatable_Bonds:                   4
##########                       Formal_Charge:           0.0299996
##########                     HBond_Acceptors:                   7
##########                        HBond_Donors:                   0
##########                         Heavy_Atoms:                  27
##########                          Grid_Score:          -23.450518
##########                     Grid_vdw_energy:          -23.695467
##########                      Grid_es_energy:            0.244949
##########           Internal_energy_repulsive:            8.521734

@<TRIPOS>MOLECULE
ZINC000616491533
 50 53 1 0 0
SMALL
USER_CHARGES


@<TRIPOS>ATOM
      1 C1        -14.1567   -1.5128   54.8816 C.3     1  ZINC000616491533   -0.1700
      2 C2        -14.1281   -2.9136   55.4962 C.3     1  ZINC000616491533    0.1400
      3 H3        -14.8239   -3.5648   54.9669 H       1  ZINC000616491533    0.0800
      4 C4        -12.6991   -3.4943   55.4136 C.3     1  ZINC000616491533   -0.1200
      5 C5        -12.1303   -3.2084   56.8191 C.3     1  ZINC000616491533   -0.0700
      6 C6        -13.3686   -3.3710   57.7212 C.3     1  ZINC000616491533    0.0900
      7 N7        -14.4933   -2.8429   56.9192 N.am    1  ZINC000616491533   -0.6100
      8 C8        -15.6563   -2.3730   57.4121 C.2     1  ZINC000616491533    0.6100
      9 O9        -16.5139   -1.9586   56.6559 O.2     1  ZINC000616491533   -0.5200
     10 C10       -15.8890   -2.3612   58.8677 C.2     1  ZINC000616491533   -0.2400
     11 C11       -15.7500   -1.2770   59.7110 C.2     1  ZINC000616491533    0.0700
     12 C12       -15.3316    0.1150   59.3135 C.3     1  ZINC000616491533    0.3400
     13 F13       -16.2131    1.0452   59.8747 F       1  ZINC000616491533   -0.1900
     14 F14       -14.0351    0.3626   59.7772 F       1  ZINC000616491533   -0.1600
     15 N15       -16.0574   -1.6923   60.9533 N.pl3   1  ZINC000616491533   -0.2900
     16 C16       -16.0433   -0.8995   62.1091 C.ar    1  ZINC000616491533    0.1300
     17 C17       -17.2329   -0.4089   62.6307 C.ar    1  ZINC000616491533   -0.1000
     18 C18       -17.2158    0.3720   63.7697 C.ar    1  ZINC000616491533   -0.1000
     19 C19       -16.0155    0.6657   64.3904 C.ar    1  ZINC000616491533   -0.1000
     20 C20       -14.8292    0.1786   63.8733 C.ar    1  ZINC000616491533   -0.1000
     21 C21       -14.8403   -0.6080   62.7381 C.ar    1  ZINC000616491533   -0.0900
     22 N22       -16.3936   -3.0494   60.8963 N.2     1  ZINC000616491533   -0.2600
     23 C23       -16.3019   -3.4562   59.6600 C.2     1  ZINC000616491533    0.0700
     24 C24       -11.0607   -4.2280   57.1831 C.3     1  ZINC000616491533   -0.1400
     25 C25       -10.4868   -3.8874   58.5629 C.3     1  ZINC000616491533    0.0600
     26 O26        -9.9927   -2.5464   58.5507 O.3     1  ZINC000616491533   -0.3800
     27 C27       -10.9895   -1.5554   58.2919 C.3     1  ZINC000616491533    0.0600
     28 C28       -11.5868   -1.7893   56.8998 C.3     1  ZINC000616491533   -0.1500
     29 H29       -13.4684   -0.8642   55.4233 H       1  ZINC000616491533    0.0600
     30 H30       -13.8560   -1.5688   53.8354 H       1  ZINC000616491533    0.0600
     31 H31       -15.1664   -1.1075   54.9481 H       1  ZINC000616491533    0.0800
     32 H32       -12.7288   -4.5666   55.2200 H       1  ZINC000616491533    0.0800
     33 H33       -12.1167   -2.9792   54.6496 H       1  ZINC000616491533    0.0900
     34 H34       -13.5321   -4.4228   57.9554 H       1  ZINC000616491533    0.0800
     35 H35       -13.2499   -2.7913   58.6368 H       1  ZINC000616491533    0.0800
     36 H36       -15.3522    0.2044   58.2273 H       1  ZINC000616491533    0.1400
     37 H37       -18.1706   -0.6374   62.1460 H       1  ZINC000616491533    0.1300
     38 H38       -18.1408    0.7539   64.1759 H       1  ZINC000616491533    0.1400
     39 H39       -16.0046    1.2772   65.2805 H       1  ZINC000616491533    0.1300
     40 H40       -13.8933    0.4096   64.3602 H       1  ZINC000616491533    0.1400
     41 H41       -13.9134   -0.9882   62.3346 H       1  ZINC000616491533    0.1300
     42 H42       -16.5009   -4.4566   59.3051 H       1  ZINC000616491533    0.2100
     43 H43       -11.5013   -5.2246   57.2081 H       1  ZINC000616491533    0.0800
     44 H44       -10.2635   -4.2002   56.4403 H       1  ZINC000616491533    0.0800
     45 H45       -11.2696   -3.9800   59.3157 H       1  ZINC000616491533    0.0500
     46 H46        -9.6726   -4.5730   58.7977 H       1  ZINC000616491533    0.1000
     47 H47       -11.7768   -1.6266   59.0423 H       1  ZINC000616491533    0.0500
     48 H48       -10.5366   -0.5647   58.3317 H       1  ZINC000616491533    0.1000
     49 H49       -10.8133   -1.6522   56.1442 H       1  ZINC000616491533    0.0800
     50 H50       -12.3955   -1.0794   56.7267 H       1  ZINC000616491533    0.0800
@<TRIPOS>BOND
     1     1     2    1
     2     1    29    1
     3     1    30    1
     4     1    31    1
     5     2     3    1
     6     2     7    1
     7     2     4    1
     8     4     5    1
     9     4    32    1
    10     4    33    1
    11     5    28    1
    12     5     6    1
    13     5    24    1
    14     6     7    1
    15     6    34    1
    16     6    35    1
    17     7     8   am
    18     8     9    2
    19     8    10    1
    20    10    23    1
    21    10    11    2
    22    11    12    1
    23    11    15    1
    24    12    13    1
    25    12    14    1
    26    12    36    1
    27    15    16    1
    28    15    22    1
    29    16    21   ar
    30    16    17   ar
    31    17    18   ar
    32    17    37    1
    33    18    19   ar
    34    18    38    1
    35    19    20   ar
    36    19    39    1
    37    20    21   ar
    38    20    40    1
    39    21    41    1
    40    22    23    2
    41    23    42    1
    42    24    25    1
    43    24    43    1
    44    24    44    1
    45    25    26    1
    46    25    45    1
    47    25    46    1
    48    26    27    1
    49    27    28    1
    50    27    47    1
    51    27    48    1
    52    28    49    1
    53    28    50    1
@<TRIPOS>SUBSTRUCTURE
     1 ZINC000616491533        1 TEMP              0 ****  ****    0 ROOT


##########                                Name:    ZINC000793092912
##########                DOCK_Rotatable_Bonds:                   4
##########                         Heavy_Atoms:                  26
##########                    Molecular_Weight:               407.2
##########                DOCK_Rotatable_Bonds:                   4
##########                       Formal_Charge:         2.90573e-07
##########                     HBond_Acceptors:                  10
##########                        HBond_Donors:                   1
##########                         Heavy_Atoms:                  26
##########                          Grid_Score:          -23.382782
##########                     Grid_vdw_energy:          -23.309225
##########                      Grid_es_energy:           -0.073556
##########           Internal_energy_repulsive:           10.783553

@<TRIPOS>MOLECULE
ZINC000793092912
 40 43 1 0 0
SMALL
USER_CHARGES


@<TRIPOS>ATOM
      1 C1        -12.4328    3.7960   62.7025 C.3     1  ZINC000793092912   -0.1300
      2 C2        -11.5285    2.6826   62.1701 C.3     1  ZINC000793092912   -0.0800
      3 C3        -12.1633    1.7757   61.1272 C.3     1  ZINC000793092912   -0.1100
      4 C4        -11.3034    1.6290   59.8859 C.3     1  ZINC000793092912    0.1100
      5 N5         -9.8949    1.4854   60.2135 N.am    1  ZINC000793092912   -0.5700
      6 C6         -9.2281    0.4074   59.7557 C.2     1  ZINC000793092912    0.5100
      7 O7         -8.0513    0.2660   60.0163 O.2     1  ZINC000793092912   -0.5100
      8 C8         -9.9373   -0.6130   58.9275 C.2     1  ZINC000793092912    0.5100
      9 O9        -10.1545   -0.3970   57.7530 O.2     1  ZINC000793092912   -0.4900
     10 N10       -10.3361   -1.7738   59.4842 N.am    1  ZINC000793092912   -0.6400
     11 C11       -11.0003   -2.7295   58.7086 C.ar    1  ZINC000793092912    0.1600
     12 C12       -10.3580   -3.9109   58.3618 C.ar    1  ZINC000793092912   -0.1200
     13 C13       -11.0129   -4.8560   57.5955 C.ar    1  ZINC000793092912   -0.0600
     14 C14       -12.3117   -4.6277   57.1705 C.ar    1  ZINC000793092912    0.0200
     15 O15       -13.1631   -5.3857   56.4182 O.3     1  ZINC000793092912   -0.2800
     16 C16       -14.4738   -4.8371   56.6511 C.3     1  ZINC000793092912    0.5700
     17 F17       -15.2565   -4.9264   55.4951 F       1  ZINC000793092912   -0.1100
     18 F18       -15.0984   -5.4924   57.7178 F       1  ZINC000793092912   -0.1500
     19 O19       -14.2147   -3.4599   56.9815 O.3     1  ZINC000793092912   -0.2800
     20 C20       -12.9590   -3.4432   57.5167 C.ar    1  ZINC000793092912    0.0500
     21 C21       -12.3046   -2.4996   58.2896 C.ar    1  ZINC000793092912   -0.0900
     22 C22        -9.1785    2.4641   61.0176 C.3     1  ZINC000793092912    0.1100
     23 C23       -10.0318    2.9459   62.1816 C.3     1  ZINC000793092912   -0.1200
     24 H24        -9.7407    3.9151   62.5863 H       1  ZINC000793092912    0.1400
     25 C25       -10.6232    1.9760   63.1934 C.3     1  ZINC000793092912    0.0000
     26 Cl26      -10.7044    2.5117   64.9130 Cl      1  ZINC000793092912   -0.0800
     27 Cl27      -10.3195    0.2171   62.9384 Cl      1  ZINC000793092912   -0.0900
     28 H28       -12.2891    4.6972   62.1063 H       1  ZINC000793092912    0.0800
     29 H29       -13.4742    3.4802   62.6382 H       1  ZINC000793092912    0.0700
     30 H30       -12.1798    4.0039   63.7420 H       1  ZINC000793092912    0.0700
     31 H31       -12.3210    0.7904   61.5656 H       1  ZINC000793092912    0.0900
     32 H32       -13.1295    2.1907   60.8399 H       1  ZINC000793092912    0.1000
     33 H33       -11.6296    0.7497   59.3307 H       1  ZINC000793092912    0.1100
     34 H34       -11.4333    2.5109   59.2585 H       1  ZINC000793092912    0.0800
     35 H35       -10.1625   -1.9464   60.4228 H       1  ZINC000793092912    0.4300
     36 H36        -9.3452   -4.0911   58.6911 H       1  ZINC000793092912    0.1500
     37 H37       -10.5115   -5.7741   57.3271 H       1  ZINC000793092912    0.1500
     38 H38       -12.8066   -1.5836   58.5636 H       1  ZINC000793092912    0.1600
     39 H39        -8.2766    2.0035   61.4207 H       1  ZINC000793092912    0.1400
     40 H40        -8.8964    3.3069   60.3867 H       1  ZINC000793092912    0.1000
@<TRIPOS>BOND
     1     1     2    1
     2     1    28    1
     3     1    29    1
     4     1    30    1
     5     2    23    1
     6     2    25    1
     7     2     3    1
     8     3     4    1
     9     3    31    1
    10     3    32    1
    11     4     5    1
    12     4    33    1
    13     4    34    1
    14     5     6   am
    15     5    22    1
    16     6     7    2
    17     6     8    1
    18     8     9    2
    19     8    10   am
    20    10    11    1
    21    10    35    1
    22    11    21   ar
    23    11    12   ar
    24    12    13   ar
    25    12    36    1
    26    13    14   ar
    27    13    37    1
    28    14    20   ar
    29    14    15    1
    30    15    16    1
    31    16    17    1
    32    16    18    1
    33    16    19    1
    34    19    20    1
    35    20    21   ar
    36    21    38    1
    37    22    23    1
    38    22    39    1
    39    22    40    1
    40    23    24    1
    41    23    25    1
    42    25    26    1
    43    25    27    1
@<TRIPOS>SUBSTRUCTURE
     1 ZINC000793092912        1 TEMP              0 ****  ****    0 ROOT


##########                                Name:    ZINC001708427409
##########                DOCK_Rotatable_Bonds:                   6
##########                         Heavy_Atoms:                  24
##########                    Molecular_Weight:             334.505
##########                DOCK_Rotatable_Bonds:                   6
##########                       Formal_Charge:          -0.0200006
##########                     HBond_Acceptors:                   5
##########                        HBond_Donors:                   1
##########                         Heavy_Atoms:                  24
##########                          Grid_Score:          -23.370842
##########                     Grid_vdw_energy:          -23.355600
##########                      Grid_es_energy:           -0.015242
##########           Internal_energy_repulsive:           14.351488

@<TRIPOS>MOLECULE
ZINC001708427409
 58 60 1 0 0
SMALL
USER_CHARGES


@<TRIPOS>ATOM
      1 C1         -4.2647    2.5425   50.9391 C.3     1  ZINC001708427409   -0.1500
      2 C2         -3.3716    2.5076   49.6974 C.3     1  ZINC001708427409   -0.1200
      3 C3         -2.0874    3.2932   49.9707 C.3     1  ZINC001708427409    0.0000
      4 H4         -1.7953    3.1609   51.0124 H       1  ZINC001708427409    0.0800
      5 C5         -2.3293    4.7783   49.6935 C.3     1  ZINC001708427409   -0.1400
      6 C6         -0.9882    2.7871   49.0726 C.2     1  ZINC001708427409    0.1800
      7 N7         -1.1046    2.4661   47.8151 N.2     1  ZINC001708427409   -0.2800
      8 N8          0.0288    2.0729   47.3540 N.2     1  ZINC001708427409   -0.3200
      9 C9          0.9366    2.1222   48.3002 C.2     1  ZINC001708427409    0.3600
     10 N10         2.2729    1.7756   48.1787 N.3     1  ZINC001708427409   -0.4200
     11 C11         2.9121    2.5027   47.0470 C.3     1  ZINC001708427409    0.0400
     12 C12         4.1434    1.6478   46.6749 C.3     1  ZINC001708427409   -0.0900
     13 H13         5.0402    2.0504   47.1456 H       1  ZINC001708427409    0.0900
     14 C14         4.3175    1.5996   45.1556 C.3     1  ZINC001708427409   -0.1500
     15 C15         3.8324    0.2318   47.2295 C.3     1  ZINC001708427409   -0.0800
     16 H16         3.8745   -0.5176   46.4393 H       1  ZINC001708427409    0.0900
     17 C17         4.8647   -0.0616   48.3185 C.3     1  ZINC001708427409   -0.1100
     18 C18         4.4361   -1.2908   49.1193 C.3     1  ZINC001708427409   -0.1200
     19 C19         3.1462   -0.9567   49.8653 C.3     1  ZINC001708427409   -0.1100
     20 C20         2.0433   -0.5939   48.8918 C.3     1  ZINC001708427409   -0.1000
     21 C21         2.4191    0.3555   47.7929 C.3     1  ZINC001708427409    0.1000
     22 H22         1.7242    0.1852   46.9705 H       1  ZINC001708427409    0.0600
     23 N23         0.3176    2.5850   49.4247 N.pl3   1  ZINC001708427409   -0.4700
     24 C24         0.9240    2.8094   50.7393 C.3     1  ZINC001708427409    0.0800
     25 C25         1.6351    4.1641   50.7484 C.3     1  ZINC001708427409    0.1200
     26 C26         1.0566    5.0361   51.8648 C.3     1  ZINC001708427409   -0.1800
     27 C27         3.1311    3.9532   50.9893 C.3     1  ZINC001708427409   -0.1500
     28 O28         1.4419    4.8119   49.4894 O.3     1  ZINC001708427409   -0.5400
     29 H29        -4.5149    3.5761   51.1779 H       1  ZINC001708427409    0.0600
     30 H30        -5.1796    1.9829   50.7444 H       1  ZINC001708427409    0.0600
     31 H31        -3.7359    2.0932   51.7797 H       1  ZINC001708427409    0.0500
     32 H32        -3.1213    1.4740   49.4586 H       1  ZINC001708427409    0.0700
     33 H33        -3.9003    2.9569   48.8568 H       1  ZINC001708427409    0.0800
     34 H34        -3.1243    5.1444   50.3430 H       1  ZINC001708427409    0.0700
     35 H35        -1.4143    5.3379   49.8881 H       1  ZINC001708427409    0.0500
     36 H36        -2.6213    4.9106   48.6516 H       1  ZINC001708427409    0.0700
     37 H37         2.2264    2.5683   46.2023 H       1  ZINC001708427409    0.0600
     38 H38         3.2230    3.4986   47.3629 H       1  ZINC001708427409    0.0800
     39 H39         4.4839    2.6079   44.7767 H       1  ZINC001708427409    0.0600
     40 H40         5.1738    0.9724   44.9077 H       1  ZINC001708427409    0.0600
     41 H41         3.4188    1.1840   44.6999 H       1  ZINC001708427409    0.0600
     42 H42         5.8345   -0.2495   47.8575 H       1  ZINC001708427409    0.0600
     43 H43         4.9418    0.7969   48.9857 H       1  ZINC001708427409    0.0700
     44 H44         4.2614   -2.1266   48.4418 H       1  ZINC001708427409    0.0600
     45 H45         5.2158   -1.5521   49.8347 H       1  ZINC001708427409    0.0600
     46 H46         2.8368   -1.8212   50.4525 H       1  ZINC001708427409    0.0600
     47 H47         3.3259   -0.1149   50.5341 H       1  ZINC001708427409    0.0600
     48 H48         1.6827   -1.5116   48.4272 H       1  ZINC001708427409    0.0600
     49 H49         1.2199   -0.1567   49.4564 H       1  ZINC001708427409    0.0700
     50 H50         0.1472    2.8016   51.5039 H       1  ZINC001708427409    0.0900
     51 H51         1.6455    2.0189   50.9464 H       1  ZINC001708427409    0.1000
     52 H52         1.2040    4.5420   52.8250 H       1  ZINC001708427409    0.0700
     53 H53         1.5632    6.0013   51.8712 H       1  ZINC001708427409    0.0700
     54 H54        -0.0092    5.1863   51.6931 H       1  ZINC001708427409    0.0600
     55 H55         3.5262    3.2656   50.2416 H       1  ZINC001708427409    0.0700
     56 H56         3.6496    4.9091   50.9139 H       1  ZINC001708427409    0.0700
     57 H57         3.2836    3.5348   51.9843 H       1  ZINC001708427409    0.0700
     58 H58         1.8337    5.6945   49.4370 H       1  ZINC001708427409    0.3800
@<TRIPOS>BOND
     1     1     2    1
     2     1    29    1
     3     1    30    1
     4     1    31    1
     5     2     3    1
     6     2    32    1
     7     2    33    1
     8     3     4    1
     9     3     5    1
    10     3     6    1
    11     5    34    1
    12     5    35    1
    13     5    36    1
    14     6    23    1
    15     6     7    2
    16     7     8    1
    17     8     9    2
    18     9    10    1
    19     9    23    1
    20    10    21    1
    21    10    11    1
    22    11    12    1
    23    11    37    1
    24    11    38    1
    25    12    13    1
    26    12    14    1
    27    12    15    1
    28    14    39    1
    29    14    40    1
    30    14    41    1
    31    15    16    1
    32    15    21    1
    33    15    17    1
    34    17    18    1
    35    17    42    1
    36    17    43    1
    37    18    19    1
    38    18    44    1
    39    18    45    1
    40    19    20    1
    41    19    46    1
    42    19    47    1
    43    20    21    1
    44    20    48    1
    45    20    49    1
    46    21    22    1
    47    23    24    1
    48    24    25    1
    49    24    50    1
    50    24    51    1
    51    25    26    1
    52    25    27    1
    53    25    28    1
    54    26    52    1
    55    26    53    1
    56    26    54    1
    57    27    55    1
    58    27    56    1
    59    27    57    1
    60    28    58    1
@<TRIPOS>SUBSTRUCTURE
     1 ZINC001708427409        1 TEMP              0 ****  ****    0 ROOT


##########                                Name:    ZINC000794876634
##########                DOCK_Rotatable_Bonds:                   4
##########                         Heavy_Atoms:                  24
##########                    Molecular_Weight:             389.249
##########                DOCK_Rotatable_Bonds:                   4
##########                       Formal_Charge:        -4.47035e-08
##########                     HBond_Acceptors:                   5
##########                        HBond_Donors:                   0
##########                         Heavy_Atoms:                  24
##########                          Grid_Score:          -23.353849
##########                     Grid_vdw_energy:          -23.100405
##########                      Grid_es_energy:           -0.253444
##########           Internal_energy_repulsive:           51.850544

@<TRIPOS>MOLECULE
ZINC000794876634
 41 43 1 0 0
SMALL
USER_CHARGES


@<TRIPOS>ATOM
      1 C1         -3.0284    3.9469   52.9252 C.3     1  ZINC000794876634    0.0200
      2 O2         -3.4129    3.1835   51.7801 O.3     1  ZINC000794876634   -0.3000
      3 C3         -2.4469    2.9181   50.8633 C.ar    1  ZINC000794876634    0.1300
      4 C4         -1.1134    3.1455   51.1776 C.ar    1  ZINC000794876634   -0.1800
      5 C5         -0.1287    2.8789   50.2525 C.ar    1  ZINC000794876634   -0.0400
      6 C6          1.3171    3.1271   50.5976 C.3     1  ZINC000794876634   -0.1200
      7 C7         -0.4718    2.3766   48.9903 C.ar    1  ZINC000794876634   -0.1000
      8 C8          0.5736    2.0914   48.0033 C.2     1  ZINC000794876634    0.0600
      9 C9          0.8570    3.0021   47.0270 C.2     1  ZINC000794876634   -0.1700
     10 C10         0.2217    4.3134   46.8104 C.2     1  ZINC000794876634    0.5700
     11 O11        -0.6711    4.7961   47.4826 O.2     1  ZINC000794876634   -0.4900
     12 N12         0.8017    4.8828   45.7407 N.am    1  ZINC000794876634   -0.5300
     13 C13         0.4392    6.1996   45.2105 C.3     1  ZINC000794876634    0.0800
     14 C14         1.7865    4.0697   45.2014 C.ar    1  ZINC000794876634    0.3700
     15 N15         2.5930    4.2386   44.1608 N.ar    1  ZINC000794876634   -0.4900
     16 C16         3.4760    3.3261   43.8087 C.ar    1  ZINC000794876634    0.1800
     17 C17         3.6089    2.1399   44.5082 C.ar    1  ZINC000794876634   -0.1800
     18 Br18        4.8870    0.8518   43.9761 Br      1  ZINC000794876634   -0.0200
     19 C19         2.7922    1.9082   45.6056 C.ar    1  ZINC000794876634    0.0000
     20 C20         1.8738    2.8915   45.9580 C.ar    1  ZINC000794876634   -0.1400
     21 C21        -1.8185    2.1472   48.6748 C.ar    1  ZINC000794876634   -0.1400
     22 C22        -2.7970    2.4126   49.6107 C.ar    1  ZINC000794876634    0.0900
     23 O23        -4.1043    2.1910   49.3085 O.3     1  ZINC000794876634   -0.3000
     24 C24        -5.0767    2.6908   50.2287 C.3     1  ZINC000794876634    0.0200
     25 H25        -3.8920    4.0866   53.5754 H       1  ZINC000794876634    0.1000
     26 H26        -2.2461    3.4172   53.4689 H       1  ZINC000794876634    0.0600
     27 H27        -2.6537    4.9190   52.6048 H       1  ZINC000794876634    0.0600
     28 H28        -0.8479    3.5327   52.1502 H       1  ZINC000794876634    0.1400
     29 H29         1.7444    2.2276   51.0409 H       1  ZINC000794876634    0.0800
     30 H30         1.8679    3.3831   49.6925 H       1  ZINC000794876634    0.0700
     31 H31         1.3848    3.9501   51.3091 H       1  ZINC000794876634    0.0700
     32 H32         1.1195    1.1607   48.0485 H       1  ZINC000794876634    0.1500
     33 H33        -0.3603    6.6272   45.8155 H       1  ZINC000794876634    0.0900
     34 H34         1.3090    6.8559   45.2416 H       1  ZINC000794876634    0.0800
     35 H35         0.0993    6.0954   44.1801 H       1  ZINC000794876634    0.0800
     36 H36         4.1105    3.5083   42.9539 H       1  ZINC000794876634    0.1800
     37 H37         2.8704    0.9923   46.1726 H       1  ZINC000794876634    0.1600
     38 H38        -2.0889    1.7601   47.7035 H       1  ZINC000794876634    0.1400
     39 H39        -4.9742    2.1731   51.1824 H       1  ZINC000794876634    0.0500
     40 H40        -4.9213    3.7594   50.3767 H       1  ZINC000794876634    0.0600
     41 H41        -6.0764    2.5210   49.8287 H       1  ZINC000794876634    0.1100
@<TRIPOS>BOND
     1     1     2    1
     2     1    25    1
     3     1    26    1
     4     1    27    1
     5     2     3    1
     6     3    22   ar
     7     3     4   ar
     8     4     5   ar
     9     4    28    1
    10     5     6    1
    11     5     7   ar
    12     6    29    1
    13     6    30    1
    14     6    31    1
    15     7     8    1
    16     7    21   ar
    17     8     9    2
    18     8    32    1
    19     9    20    1
    20     9    10    1
    21    10    11    2
    22    10    12   am
    23    12    13    1
    24    12    14    1
    25    13    33    1
    26    13    34    1
    27    13    35    1
    28    14    20   ar
    29    14    15   ar
    30    15    16   ar
    31    16    17   ar
    32    16    36    1
    33    17    18    1
    34    17    19   ar
    35    19    20   ar
    36    19    37    1
    37    21    22   ar
    38    21    38    1
    39    22    23    1
    40    23    24    1
    41    24    39    1
    42    24    40    1
    43    24    41    1
@<TRIPOS>SUBSTRUCTURE
     1 ZINC000794876634        1 TEMP              0 ****  ****    0 ROOT


##########                                Name:    ZINC001173835973
##########                DOCK_Rotatable_Bonds:                   4
##########                         Heavy_Atoms:                  26
##########                    Molecular_Weight:             343.388
##########                DOCK_Rotatable_Bonds:                   4
##########                       Formal_Charge:           -0.010001
##########                     HBond_Acceptors:                   6
##########                        HBond_Donors:                   4
##########                         Heavy_Atoms:                  26
##########                          Grid_Score:          -23.289669
##########                     Grid_vdw_energy:          -23.185356
##########                      Grid_es_energy:           -0.104314
##########           Internal_energy_repulsive:            7.695403

@<TRIPOS>MOLECULE
ZINC001173835973
 43 46 1 0 0
SMALL
USER_CHARGES


@<TRIPOS>ATOM
      1 C1        -15.0672   -2.9397   45.6941 C.3     1  ZINC001173835973   -0.1700
      2 C2        -14.7281   -1.5610   46.1993 C.2     1  ZINC001173835973    0.5100
      3 O3        -15.3453   -0.5982   45.7953 O.2     1  ZINC001173835973   -0.5200
      4 N4        -13.7390   -1.3977   47.1001 N.am    1  ZINC001173835973   -0.6800
      5 C5        -13.4241   -0.1177   47.5692 C.ar    1  ZINC001173835973    0.1800
      6 C6        -13.0244    0.8704   46.6784 C.ar    1  ZINC001173835973   -0.1900
      7 C7        -12.7131    2.1352   47.1405 C.ar    1  ZINC001173835973   -0.0600
      8 C8        -12.7987    2.4216   48.4889 C.ar    1  ZINC001173835973   -0.1900
      9 C9        -13.1981    1.4373   49.3858 C.ar    1  ZINC001173835973    0.2200
     10 N10       -13.2843    1.7272   50.7489 N.pl3   1  ZINC001173835973   -0.6900
     11 C11       -12.5604    0.9655   51.6737 C.ar    1  ZINC001173835973    0.0400
     12 C12       -13.1736   -0.0568   52.3361 C.ar    1  ZINC001173835973    0.2400
     13 N13       -14.5219   -0.3362   52.0861 N.pl3   1  ZINC001173835973   -0.8600
     14 C14       -12.4347   -0.8615   53.3029 C.ar    1  ZINC001173835973   -0.1100
     15 C15       -13.0606   -1.9158   53.9878 C.ar    1  ZINC001173835973   -0.0600
     16 C16       -12.3189   -2.6376   54.8833 C.ar    1  ZINC001173835973   -0.1700
     17 C17       -10.9830   -2.3161   55.0921 C.ar    1  ZINC001173835973    0.1200
     18 N18       -10.4049   -1.3284   54.4474 N.ar    1  ZINC001173835973   -0.4400
     19 C19       -11.0735   -0.5902   53.5643 C.ar    1  ZINC001173835973    0.1900
     20 C20       -10.4135    0.5099   52.8514 C.ar    1  ZINC001173835973    0.1300
     21 N21        -9.1320    0.7937   53.0727 N.ar    1  ZINC001173835973   -0.4400
     22 C22        -8.5287    1.7754   52.4417 C.ar    1  ZINC001173835973    0.1000
     23 C23        -9.1987    2.5638   51.5141 C.ar    1  ZINC001173835973   -0.1500
     24 C24       -10.5184    2.3222   51.2423 C.ar    1  ZINC001173835973   -0.0700
     25 C25       -11.1539    1.2675   51.9171 C.ar    1  ZINC001173835973   -0.0400
     26 C26       -13.5163    0.1676   48.9239 C.ar    1  ZINC001173835973   -0.1900
     27 H27       -15.8864   -2.8729   44.9781 H       1  ZINC001173835973    0.1000
     28 H28       -14.1937   -3.3733   45.2073 H       1  ZINC001173835973    0.0900
     29 H29       -15.3669   -3.5698   46.5314 H       1  ZINC001173835973    0.0900
     30 H30       -13.2454   -2.1677   47.4233 H       1  ZINC001173835973    0.4100
     31 H31       -12.9564    0.6500   45.6233 H       1  ZINC001173835973    0.1200
     32 H32       -12.4020    2.9013   46.4457 H       1  ZINC001173835973    0.1200
     33 H33       -12.5548    3.4108   48.8469 H       1  ZINC001173835973    0.1200
     34 H34       -13.8459    2.4564   51.0552 H       1  ZINC001173835973    0.4000
     35 H35       -14.9948    0.1418   51.3870 H       1  ZINC001173835973    0.4100
     36 H36       -14.9835   -1.0081   52.6120 H       1  ZINC001173835973    0.4000
     37 H37       -14.1002   -2.1506   53.8125 H       1  ZINC001173835973    0.1400
     38 H38       -12.7706   -3.4545   55.4266 H       1  ZINC001173835973    0.1400
     39 H39       -10.4067   -2.8918   55.8012 H       1  ZINC001173835973    0.1700
     40 H40        -7.4877    1.9745   52.6491 H       1  ZINC001173835973    0.1600
     41 H41        -8.6799    3.3652   51.0092 H       1  ZINC001173835973    0.1400
     42 H42       -11.0557    2.9247   50.5248 H       1  ZINC001173835973    0.1400
     43 H43       -13.8271   -0.5988   49.6184 H       1  ZINC001173835973    0.1400
@<TRIPOS>BOND
     1     1     2    1
     2     1    27    1
     3     1    28    1
     4     1    29    1
     5     2     3    2
     6     2     4   am
     7     4     5    1
     8     4    30    1
     9     5    26   ar
    10     5     6   ar
    11     6     7   ar
    12     6    31    1
    13     7     8   ar
    14     7    32    1
    15     8     9   ar
    16     8    33    1
    17     9    10    1
    18     9    26   ar
    19    10    11    1
    20    10    34    1
    21    11    25   ar
    22    11    12   ar
    23    12    13    1
    24    12    14   ar
    25    13    35    1
    26    13    36    1
    27    14    19   ar
    28    14    15   ar
    29    15    16   ar
    30    15    37    1
    31    16    17   ar
    32    16    38    1
    33    17    18   ar
    34    17    39    1
    35    18    19   ar
    36    19    20   ar
    37    20    25   ar
    38    20    21   ar
    39    21    22   ar
    40    22    23   ar
    41    22    40    1
    42    23    24   ar
    43    23    41    1
    44    24    25   ar
    45    24    42    1
    46    26    43    1
@<TRIPOS>SUBSTRUCTURE
     1 ZINC001173835973        1 TEMP              0 ****  ****    0 ROOT


##########                                Name:    ZINC000942661662
##########                DOCK_Rotatable_Bonds:                   6
##########                         Heavy_Atoms:                  25
##########                    Molecular_Weight:             343.426
##########                DOCK_Rotatable_Bonds:                   6
##########                       Formal_Charge:           0.0399997
##########                     HBond_Acceptors:                   6
##########                        HBond_Donors:                   1
##########                         Heavy_Atoms:                  25
##########                          Grid_Score:          -23.243607
##########                     Grid_vdw_energy:          -21.690319
##########                      Grid_es_energy:           -1.553287
##########           Internal_energy_repulsive:          197.281647

@<TRIPOS>MOLECULE
ZINC000942661662
 50 52 1 0 0
SMALL
USER_CHARGES


@<TRIPOS>ATOM
      1 C1          1.4775    4.5668   41.3762 C.3     1  ZINC000942661662   -0.1700
      2 C2          1.6644    5.6071   42.4824 C.3     1  ZINC000942661662    0.1000
      3 N3          1.8730    4.9262   43.7628 N.am    1  ZINC000942661662   -0.6000
      4 C4          3.0749    4.3898   44.0527 C.2     1  ZINC000942661662    0.6000
      5 O5          3.2481    3.8246   45.1156 O.2     1  ZINC000942661662   -0.5200
      6 C6          4.1793    4.4881   43.0818 C.2     1  ZINC000942661662   -0.2400
      7 C7          5.4442    3.9959   43.2191 C.2     1  ZINC000942661662    0.0700
      8 C8          5.9717    3.2408   44.4118 C.3     1  ZINC000942661662   -0.0900
      9 O9          6.1360    4.2971   42.1159 O.3     1  ZINC000942661662   -0.1700
     10 C10         5.3747    4.9758   41.2435 C.2     1  ZINC000942661662   -0.0300
     11 C11         4.1463    5.1316   41.7604 C.2     1  ZINC000942661662   -0.1900
     12 C12         0.7751    4.8285   44.7279 C.3     1  ZINC000942661662    0.1400
     13 H13        -0.1319    5.2855   44.3322 H       1  ZINC000942661662    0.1100
     14 C14         1.1710    5.4641   46.0868 C.3     1  ZINC000942661662   -0.1400
     15 C15         0.2814    4.7066   47.0949 C.3     1  ZINC000942661662    0.1000
     16 N16        -0.1031    3.4338   46.4673 N.am    1  ZINC000942661662   -0.6200
     17 C17        -0.8976    2.4948   47.0183 C.2     1  ZINC000942661662    0.6100
     18 O18        -1.1491    1.4744   46.4048 O.2     1  ZINC000942661662   -0.5200
     19 C19        -1.4591    2.7029   48.3573 C.2     1  ZINC000942661662   -0.0600
     20 C20        -0.7674    2.6477   49.5486 C.2     1  ZINC000942661662   -0.0700
     21 C21         0.7027    2.3631   49.7182 C.3     1  ZINC000942661662   -0.0900
     22 C22        -1.6870    2.9061   50.5699 C.2     1  ZINC000942661662   -0.2100
     23 C23        -2.8975    3.1100   49.9973 C.2     1  ZINC000942661662    0.0500
     24 C24        -4.1745    3.4212   50.7346 C.3     1  ZINC000942661662   -0.0900
     25 N25        -2.7716    2.9947   48.6528 N.pl3   1  ZINC000942661662   -0.5400
     26 C26         0.5227    3.3552   45.1343 C.3     1  ZINC000942661662    0.0900
     27 H27         1.3224    5.0734   40.4235 H       1  ZINC000942661662    0.0700
     28 H28         2.3667    3.9395   41.3134 H       1  ZINC000942661662    0.0600
     29 H29         0.6105    3.9465   41.6034 H       1  ZINC000942661662    0.0600
     30 H30         2.5314    6.2273   42.2553 H       1  ZINC000942661662    0.0900
     31 H31         0.7752    6.2345   42.5452 H       1  ZINC000942661662    0.0800
     32 H32         5.8007    2.1734   44.2706 H       1  ZINC000942661662    0.0900
     33 H33         7.0406    3.4269   44.5160 H       1  ZINC000942661662    0.0900
     34 H34         5.4551    3.5756   45.3113 H       1  ZINC000942661662    0.1000
     35 H35         5.6978    5.3348   40.2775 H       1  ZINC000942661662    0.2100
     36 H36         3.3070    5.6340   41.3025 H       1  ZINC000942661662    0.1600
     37 H37         2.2263    5.2935   46.2995 H       1  ZINC000942661662    0.1000
     38 H38         0.9422    6.5298   46.0953 H       1  ZINC000942661662    0.0900
     39 H39         0.8400    4.5144   48.0109 H       1  ZINC000942661662    0.0700
     40 H40        -0.6093    5.2939   47.3178 H       1  ZINC000942661662    0.0700
     41 H41         1.2599    3.2994   49.6879 H       1  ZINC000942661662    0.0700
     42 H42         0.8695    1.8720   50.6768 H       1  ZINC000942661662    0.0600
     43 H43         1.0420    1.7122   48.9124 H       1  ZINC000942661662    0.0800
     44 H44        -1.4705    2.9371   51.6275 H       1  ZINC000942661662    0.1400
     45 H45        -4.2788    4.5010   50.8407 H       1  ZINC000942661662    0.0800
     46 H46        -5.0226    3.0275   50.1743 H       1  ZINC000942661662    0.0700
     47 H47        -4.1457    2.9602   51.7218 H       1  ZINC000942661662    0.0900
     48 H48        -3.4880    3.0954   48.0067 H       1  ZINC000942661662    0.4100
     49 H49        -0.1526    2.8754   44.4259 H       1  ZINC000942661662    0.0800
     50 H50         1.4653    2.8107   45.1894 H       1  ZINC000942661662    0.1000
@<TRIPOS>BOND
     1     1     2    1
     2     1    27    1
     3     1    28    1
     4     1    29    1
     5     2     3    1
     6     2    30    1
     7     2    31    1
     8     3     4   am
     9     3    12    1
    10     4     5    2
    11     4     6    1
    12     6    11    1
    13     6     7    2
    14     7     8    1
    15     7     9    1
    16     8    32    1
    17     8    33    1
    18     8    34    1
    19     9    10    1
    20    10    11    2
    21    10    35    1
    22    11    36    1
    23    12    13    1
    24    12    26    1
    25    12    14    1
    26    14    15    1
    27    14    37    1
    28    14    38    1
    29    15    16    1
    30    15    39    1
    31    15    40    1
    32    16    17   am
    33    16    26    1
    34    17    18    2
    35    17    19    1
    36    19    25    1
    37    19    20    2
    38    20    21    1
    39    20    22    1
    40    21    41    1
    41    21    42    1
    42    21    43    1
    43    22    23    2
    44    22    44    1
    45    23    24    1
    46    23    25    1
    47    24    45    1
    48    24    46    1
    49    24    47    1
    50    25    48    1
    51    26    49    1
    52    26    50    1
@<TRIPOS>SUBSTRUCTURE
     1 ZINC000942661662        1 TEMP              0 ****  ****    0 ROOT


##########                                Name:    ZINC000656860804
##########                DOCK_Rotatable_Bonds:                   2
##########                         Heavy_Atoms:                  19
##########                    Molecular_Weight:             388.068
##########                DOCK_Rotatable_Bonds:                   2
##########                       Formal_Charge:          8.9407e-08
##########                     HBond_Acceptors:                   8
##########                        HBond_Donors:                   1
##########                         Heavy_Atoms:                  19
##########                          Grid_Score:          -22.999588
##########                     Grid_vdw_energy:          -23.079857
##########                      Grid_es_energy:            0.080269
##########           Internal_energy_repulsive:           17.612619

@<TRIPOS>MOLECULE
ZINC000656860804
 28 29 1 0 0
SMALL
USER_CHARGES


@<TRIPOS>ATOM
      1 O1          3.5605   -1.3366   50.3358 O.2     1  ZINC000656860804   -0.5400
      2 C2          3.2284   -0.6633   49.3833 C.2     1  ZINC000656860804    0.5100
      3 C3          2.0002    0.1968   49.5059 C.3     1  ZINC000656860804    0.1100
      4 N4          1.9623    1.1366   48.3757 N.am    1  ZINC000656860804   -1.0000
      5 S5          1.5519    2.7265   48.5905 S.o2    1  ZINC000656860804    2.6900
      6 O6          2.4085    3.2282   49.6073 O.2     1  ZINC000656860804   -0.9200
      7 O7          1.4686    3.2984   47.2924 O.2     1  ZINC000656860804   -0.9300
      8 C8         -0.0800    2.7590   49.2541 C.ar    1  ZINC000656860804   -0.6500
      9 C9         -0.2943    3.2218   50.5384 C.ar    1  ZINC000656860804    0.0100
     10 C10        -1.5755    3.2474   51.0600 C.ar    1  ZINC000656860804   -0.0400
     11 Cl11       -1.8447    3.8293   52.6732 Cl      1  ZINC000656860804   -0.0200
     12 C12        -2.6429    2.8094   50.2947 C.ar    1  ZINC000656860804    0.0200
     13 Cl13       -4.2509    2.8418   50.9481 Cl      1  ZINC000656860804   -0.0100
     14 C14        -2.4276    2.3463   49.0091 C.ar    1  ZINC000656860804   -0.0900
     15 C15        -1.1471    2.3265   48.4870 C.ar    1  ZINC000656860804    0.0100
     16 Br16       -0.8526    1.6934   46.7296 Br      1  ZINC000656860804    0.0100
     17 C17         2.3045    0.6067   47.0449 C.3     1  ZINC000656860804    0.0900
     18 C18         3.7465    0.0975   47.0901 C.3     1  ZINC000656860804    0.0800
     19 N19         3.9720   -0.7150   48.2772 N.am    1  ZINC000656860804   -0.7100
     20 H20         1.1104   -0.4327   49.4873 H       1  ZINC000656860804    0.1200
     21 H21         2.0361    0.7533   50.4424 H       1  ZINC000656860804    0.1200
     22 H22         0.5386    3.5631   51.1353 H       1  ZINC000656860804    0.1700
     23 H23        -3.2597    2.0041   48.4119 H       1  ZINC000656860804    0.1700
     24 H24         1.6327   -0.2134   46.7917 H       1  ZINC000656860804    0.1000
     25 H25         2.2170    1.3979   46.3003 H       1  ZINC000656860804    0.1200
     26 H26         3.9438   -0.5005   46.2004 H       1  ZINC000656860804    0.1000
     27 H27         4.4271    0.9488   47.1076 H       1  ZINC000656860804    0.0800
     28 H28         4.7113   -1.3428   48.2603 H       1  ZINC000656860804    0.4000
@<TRIPOS>BOND
     1     1     2    2
     2     2    19   am
     3     2     3    1
     4     3     4    1
     5     3    20    1
     6     3    21    1
     7     4     5   am
     8     4    17    1
     9     5     6    2
    10     5     7    2
    11     5     8    1
    12     8    15   ar
    13     8     9   ar
    14     9    10   ar
    15     9    22    1
    16    10    11    1
    17    10    12   ar
    18    12    13    1
    19    12    14   ar
    20    14    15   ar
    21    14    23    1
    22    15    16    1
    23    17    18    1
    24    17    24    1
    25    17    25    1
    26    18    19    1
    27    18    26    1
    28    18    27    1
    29    19    28    1
@<TRIPOS>SUBSTRUCTURE
     1 ZINC000656860804        1 TEMP              0 ****  ****    0 ROOT


##########                                Name:    ZINC000431691749
##########                DOCK_Rotatable_Bonds:                   4
##########                         Heavy_Atoms:                  24
##########                    Molecular_Weight:             328.454
##########                DOCK_Rotatable_Bonds:                   4
##########                       Formal_Charge:         -0.00999957
##########                     HBond_Acceptors:                   4
##########                        HBond_Donors:                   0
##########                         Heavy_Atoms:                  24
##########                          Grid_Score:          -22.903255
##########                     Grid_vdw_energy:          -23.030760
##########                      Grid_es_energy:            0.127504
##########           Internal_energy_repulsive:          119.664337

@<TRIPOS>MOLECULE
ZINC000431691749
 52 54 1 0 0
SMALL
USER_CHARGES


@<TRIPOS>ATOM
      1 C1          2.9599   -1.8755   50.0384 C.3     1  ZINC000431691749   -0.1200
      2 C2          2.9689   -0.3697   49.9775 C.ar    1  ZINC000431691749   -0.0800
      3 C3          4.0298    0.3372   50.5114 C.ar    1  ZINC000431691749   -0.1200
      4 C4          4.0380    1.7186   50.4556 C.ar    1  ZINC000431691749   -0.1100
      5 C5          2.9856    2.3927   49.8653 C.ar    1  ZINC000431691749   -0.1100
      6 C6          1.9248    1.6856   49.3305 C.ar    1  ZINC000431691749   -0.0800
      7 C7          0.7771    2.4205   48.6872 C.3     1  ZINC000431691749    0.2000
      8 H8          0.2468    1.7477   48.0134 H       1  ZINC000431691749    0.1100
      9 N9         -0.1412    2.8959   49.7250 N.am    1  ZINC000431691749   -0.5700
     10 C10         0.2157    3.1260   51.0041 C.2     1  ZINC000431691749    0.5200
     11 O11         1.3153    2.9840   51.4944 O.2     1  ZINC000431691749   -0.4400
     12 C12        -1.0437    3.6001   51.7020 C.3     1  ZINC000431691749    0.0900
     13 H13        -1.3177    2.9160   52.5051 H       1  ZINC000431691749    0.1300
     14 C14        -0.8566    5.0181   52.2453 C.3     1  ZINC000431691749   -0.1500
     15 N15        -2.0592    3.5802   50.6349 N.am    1  ZINC000431691749   -0.6000
     16 C16        -3.4707    3.9509   50.7630 C.3     1  ZINC000431691749    0.1500
     17 C17        -4.4402    2.8655   50.2659 C.3     1  ZINC000431691749   -0.1600
     18 C18        -4.4061    2.2927   51.6926 C.3     1  ZINC000431691749   -0.1400
     19 C19        -4.0459    3.7098   52.1686 C.3     1  ZINC000431691749   -0.1500
     20 C20        -1.4363    3.1607   49.5189 C.2     1  ZINC000431691749    0.7000
     21 O21        -1.9900    3.0298   48.4448 O.2     1  ZINC000431691749   -0.5300
     22 C22         1.3152    3.6146   47.8964 C.3     1  ZINC000431691749   -0.0700
     23 C23         2.6488    3.2377   47.2480 C.3     1  ZINC000431691749   -0.1400
     24 C24         0.3105    4.0007   46.8091 C.3     1  ZINC000431691749   -0.1400
     25 C25         1.5244    4.7996   48.8414 C.3     1  ZINC000431691749   -0.1600
     26 C26         1.9186    0.3044   49.3825 C.ar    1  ZINC000431691749   -0.1100
     27 H27         3.4446   -2.2779   49.1489 H       1  ZINC000431691749    0.0700
     28 H28         3.4980   -2.2063   50.9267 H       1  ZINC000431691749    0.0700
     29 H29         1.9305   -2.2311   50.0836 H       1  ZINC000431691749    0.0700
     30 H30         4.8522   -0.1895   50.9726 H       1  ZINC000431691749    0.1200
     31 H31         4.8667    2.2710   50.8734 H       1  ZINC000431691749    0.1200
     32 H32         2.9917    3.4718   49.8222 H       1  ZINC000431691749    0.1100
     33 H33        -0.6074    5.6915   51.4252 H       1  ZINC000431691749    0.0700
     34 H34        -1.7801    5.3500   52.7200 H       1  ZINC000431691749    0.0800
     35 H35        -0.0495    5.0230   52.9778 H       1  ZINC000431691749    0.0800
     36 H36        -3.6851    4.9439   50.3678 H       1  ZINC000431691749    0.1000
     37 H37        -5.4164    3.2526   49.9740 H       1  ZINC000431691749    0.0900
     38 H38        -4.0061    2.2016   49.5183 H       1  ZINC000431691749    0.0700
     39 H39        -5.3768    1.9464   52.0473 H       1  ZINC000431691749    0.0700
     40 H40        -3.6116    1.5635   51.8514 H       1  ZINC000431691749    0.0800
     41 H41        -3.2935    3.7275   52.9572 H       1  ZINC000431691749    0.1000
     42 H42        -4.9143    4.3277   52.3969 H       1  ZINC000431691749    0.0900
     43 H43         2.4997    2.3935   46.5749 H       1  ZINC000431691749    0.0600
     44 H44         3.0321    4.0884   46.6846 H       1  ZINC000431691749    0.0600
     45 H45         3.3646    2.9627   48.0227 H       1  ZINC000431691749    0.0600
     46 H46        -0.6396    4.2692   47.2710 H       1  ZINC000431691749    0.0500
     47 H47         0.6938    4.8513   46.2456 H       1  ZINC000431691749    0.0600
     48 H48         0.1614    3.1565   46.1359 H       1  ZINC000431691749    0.0500
     49 H49         1.6747    4.4326   49.8566 H       1  ZINC000431691749    0.0700
     50 H50         2.4011    5.3654   48.5261 H       1  ZINC000431691749    0.0400
     51 H51         0.6465    5.4451   48.8146 H       1  ZINC000431691749    0.1000
     52 H52         1.0900   -0.2480   48.9645 H       1  ZINC000431691749    0.1300
@<TRIPOS>BOND
     1     1     2    1
     2     1    27    1
     3     1    28    1
     4     1    29    1
     5     2    26   ar
     6     2     3   ar
     7     3     4   ar
     8     3    30    1
     9     4     5   ar
    10     4    31    1
    11     5     6   ar
    12     5    32    1
    13     6     7    1
    14     6    26   ar
    15     7     8    1
    16     7     9    1
    17     7    22    1
    18     9    20   am
    19     9    10   am
    20    10    11    2
    21    10    12    1
    22    12    13    1
    23    12    14    1
    24    12    15    1
    25    14    33    1
    26    14    34    1
    27    14    35    1
    28    15    16    1
    29    15    20   am
    30    16    19    1
    31    16    17    1
    32    16    36    1
    33    17    18    1
    34    17    37    1
    35    17    38    1
    36    18    19    1
    37    18    39    1
    38    18    40    1
    39    19    41    1
    40    19    42    1
    41    20    21    2
    42    22    23    1
    43    22    24    1
    44    22    25    1
    45    23    43    1
    46    23    44    1
    47    23    45    1
    48    24    46    1
    49    24    47    1
    50    24    48    1
    51    25    49    1
    52    25    50    1
    53    25    51    1
    54    26    52    1
@<TRIPOS>SUBSTRUCTURE
     1 ZINC000431691749        1 TEMP              0 ****  ****    0 ROOT


##########                                Name:    ZINC000550782577
##########                DOCK_Rotatable_Bonds:                   5
##########                         Heavy_Atoms:                  25
##########                    Molecular_Weight:              338.45
##########                DOCK_Rotatable_Bonds:                   5
##########                       Formal_Charge:         -0.00999954
##########                     HBond_Acceptors:                   4
##########                        HBond_Donors:                   0
##########                         Heavy_Atoms:                  25
##########                          Grid_Score:          -22.860802
##########                     Grid_vdw_energy:          -24.111153
##########                      Grid_es_energy:            1.250351
##########           Internal_energy_repulsive:           31.148912

@<TRIPOS>MOLECULE
ZINC000550782577
 51 53 1 0 0
SMALL
USER_CHARGES


@<TRIPOS>ATOM
      1 C1         -8.0725    3.7291   51.2548 C.3     1  ZINC000550782577    0.0700
      2 N2         -6.8900    2.9157   51.5488 N.am    1  ZINC000550782577   -0.5900
      3 C3         -7.0234    1.7436   52.2004 C.2     1  ZINC000550782577    0.5800
      4 O4         -6.0423    1.0687   52.4443 O.2     1  ZINC000550782577   -0.5400
      5 C5         -8.3638    1.2783   52.6189 C.ar    1  ZINC000550782577    0.0300
      6 C6         -9.0971    2.0257   53.5395 C.ar    1  ZINC000550782577   -0.0600
      7 C7        -10.3497    1.5806   53.9233 C.ar    1  ZINC000550782577   -0.1200
      8 C8        -10.8305    0.3967   53.3714 C.ar    1  ZINC000550782577    0.1100
      9 O9        -12.0541   -0.0760   53.7198 O.3     1  ZINC000550782577   -0.3000
     10 C10       -12.1675   -0.7022   54.9992 C.3     1  ZINC000550782577    0.1000
     11 C11       -10.7751   -1.0831   55.5058 C.3     1  ZINC000550782577   -0.2000
     12 C12       -12.8215    0.2676   55.9855 C.3     1  ZINC000550782577   -0.1400
     13 C13       -13.0277   -1.9616   54.8761 C.3     1  ZINC000550782577   -0.2000
     14 C14       -10.0414   -0.2972   52.4571 C.ar    1  ZINC000550782577   -0.0100
     15 N15        -8.8585    0.1557   52.1096 N.ar    1  ZINC000550782577   -0.4100
     16 C16        -5.5625    3.3765   51.1343 C.3     1  ZINC000550782577    0.1400
     17 H17        -5.6396    4.3720   50.6973 H       1  ZINC000550782577    0.1100
     18 C18        -4.6276    3.4166   52.3488 C.3     1  ZINC000550782577   -0.1300
     19 C19        -3.3358    4.1213   51.9395 C.3     1  ZINC000550782577   -0.0800
     20 C20        -2.7766    3.5122   50.6804 C.ar    1  ZINC000550782577   -0.0800
     21 C21        -1.4440    3.7599   50.3789 C.ar    1  ZINC000550782577   -0.1200
     22 C22        -0.8741    3.2352   49.2372 C.ar    1  ZINC000550782577   -0.1200
     23 C23        -1.6355    2.4570   48.3855 C.ar    1  ZINC000550782577   -0.1200
     24 C24        -2.9592    2.2077   48.6845 C.ar    1  ZINC000550782577   -0.1200
     25 C25        -3.5336    2.7320   49.8350 C.ar    1  ZINC000550782577   -0.0700
     26 C26        -4.9792    2.4078   50.1076 C.3     1  ZINC000550782577   -0.0900
     27 H27        -8.3222    4.3351   52.1257 H       1  ZINC000550782577    0.0600
     28 H28        -7.8635    4.3808   50.4065 H       1  ZINC000550782577    0.0600
     29 H29        -8.9116    3.0765   51.0136 H       1  ZINC000550782577    0.1100
     30 H30        -8.6927    2.9400   53.9479 H       1  ZINC000550782577    0.1600
     31 H31       -10.9405    2.1384   54.6348 H       1  ZINC000550782577    0.1500
     32 H32       -10.3125   -0.2186   55.9819 H       1  ZINC000550782577    0.0700
     33 H33       -10.8609   -1.8938   56.2294 H       1  ZINC000550782577    0.0800
     34 H34       -10.1596   -1.4085   54.6670 H       1  ZINC000550782577    0.0800
     35 H35       -13.8135    0.5390   55.6246 H       1  ZINC000550782577    0.0700
     36 H36       -12.9079   -0.2101   56.9615 H       1  ZINC000550782577    0.0800
     37 H37       -12.2087    1.1648   56.0731 H       1  ZINC000550782577    0.0700
     38 H38       -12.5595   -2.6545   54.1770 H       1  ZINC000550782577    0.0800
     39 H39       -13.1180   -2.4367   55.8530 H       1  ZINC000550782577    0.0800
     40 H40       -14.0183   -1.6908   54.5108 H       1  ZINC000550782577    0.0700
     41 H41       -10.4087   -1.2164   52.0252 H       1  ZINC000550782577    0.1900
     42 H42        -5.1040    3.9661   53.1608 H       1  ZINC000550782577    0.0700
     43 H43        -4.4044    2.4005   52.6740 H       1  ZINC000550782577    0.0700
     44 H44        -3.5418    5.1777   51.7671 H       1  ZINC000550782577    0.0800
     45 H45        -2.6040    4.0245   52.7415 H       1  ZINC000550782577    0.0800
     46 H46        -0.8487    4.3686   51.0434 H       1  ZINC000550782577    0.1200
     47 H47         0.1631    3.4319   49.0095 H       1  ZINC000550782577    0.1200
     48 H48        -1.1959    2.0458   47.4888 H       1  ZINC000550782577    0.1200
     49 H49        -3.5535    1.5999   48.0184 H       1  ZINC000550782577    0.1200
     50 H50        -5.0533    1.3903   50.4914 H       1  ZINC000550782577    0.0800
     51 H51        -5.5456    2.4832   49.1793 H       1  ZINC000550782577    0.0800
@<TRIPOS>BOND
     1     1     2    1
     2     1    27    1
     3     1    28    1
     4     1    29    1
     5     2     3   am
     6     2    16    1
     7     3     4    2
     8     3     5    1
     9     5    15   ar
    10     5     6   ar
    11     6     7   ar
    12     6    30    1
    13     7     8   ar
    14     7    31    1
    15     8     9    1
    16     8    14   ar
    17     9    10    1
    18    10    11    1
    19    10    12    1
    20    10    13    1
    21    11    32    1
    22    11    33    1
    23    11    34    1
    24    12    35    1
    25    12    36    1
    26    12    37    1
    27    13    38    1
    28    13    39    1
    29    13    40    1
    30    14    15   ar
    31    14    41    1
    32    16    17    1
    33    16    26    1
    34    16    18    1
    35    18    19    1
    36    18    42    1
    37    18    43    1
    38    19    20    1
    39    19    44    1
    40    19    45    1
    41    20    25   ar
    42    20    21   ar
    43    21    22   ar
    44    21    46    1
    45    22    23   ar
    46    22    47    1
    47    23    24   ar
    48    23    48    1
    49    24    25   ar
    50    24    49    1
    51    25    26    1
    52    26    50    1
    53    26    51    1
@<TRIPOS>SUBSTRUCTURE
     1 ZINC000550782577        1 TEMP              0 ****  ****    0 ROOT


##########                                Name:    ZINC000154446008
##########                DOCK_Rotatable_Bonds:                   5
##########                         Heavy_Atoms:                  24
##########                    Molecular_Weight:              349.41
##########                DOCK_Rotatable_Bonds:                   5
##########                       Formal_Charge:          -0.0199999
##########                     HBond_Acceptors:                   8
##########                        HBond_Donors:                   0
##########                         Heavy_Atoms:                  24
##########                          Grid_Score:          -22.694170
##########                     Grid_vdw_energy:          -23.735239
##########                      Grid_es_energy:            1.041069
##########           Internal_energy_repulsive:           14.073106

@<TRIPOS>MOLECULE
ZINC000154446008
 43 45 1 0 0
SMALL
USER_CHARGES


@<TRIPOS>ATOM
      1 O1         -1.5157    3.3419   52.3957 O.2     1  ZINC000154446008   -0.5000
      2 C2         -2.1395    3.4535   51.3567 C.2     1  ZINC000154446008    0.5900
      3 C3         -3.5985    3.5904   51.3888 C.2     1  ZINC000154446008   -0.2300
      4 C4         -4.2854    4.7704   51.3330 C.2     1  ZINC000154446008   -0.0600
      5 C5         -5.6497    4.6081   51.3810 C.2     1  ZINC000154446008   -0.0500
      6 C6         -6.0676    3.3402   51.4728 C.2     1  ZINC000154446008   -0.2100
      7 N7         -7.4878    2.9276   51.5382 N.pl3   1  ZINC000154446008    0.0500
      8 O8         -8.3667    3.7707   51.5535 O.2     1  ZINC000154446008   -0.1300
      9 O9         -7.7773    1.7452   51.5767 O.2     1  ZINC000154446008   -0.1500
     10 S10        -4.7454    2.2621   51.4975 S.3     1  ZINC000154446008    0.3500
     11 N11        -1.4881    3.4567   50.1767 N.am    1  ZINC000154446008   -0.6100
     12 C12        -0.0261    3.3142   50.1292 C.3     1  ZINC000154446008    0.0800
     13 C13         0.3214    2.1302   49.2183 C.3     1  ZINC000154446008    0.0900
     14 N14        -0.4175    2.2758   47.9563 N.am    1  ZINC000154446008   -0.6100
     15 C15         0.2339    2.2782   46.7764 C.2     1  ZINC000154446008    0.5500
     16 O16        -0.3884    2.3995   45.7385 O.2     1  ZINC000154446008   -0.5300
     17 C17         1.6975    2.1341   46.7439 C.2     1  ZINC000154446008   -0.1500
     18 C18         2.2096    0.9508   47.0047 C.2     1  ZINC000154446008   -0.1100
     19 C19         3.6826    0.6626   47.0158 C.3     1  ZINC000154446008   -0.1000
     20 C20         4.4419    1.7728   46.2863 C.3     1  ZINC000154446008   -0.1200
     21 C21         3.9740    3.1256   46.8369 C.3     1  ZINC000154446008   -0.1200
     22 C22         2.5198    3.3442   46.4091 C.3     1  ZINC000154446008   -0.0700
     23 C23        -1.8795    2.4184   48.0039 C.3     1  ZINC000154446008    0.1000
     24 C24        -2.2275    3.5967   48.9144 C.3     1  ZINC000154446008    0.1000
     25 H25        -3.8044    5.7344   51.2587 H       1  ZINC000154446008    0.1800
     26 H26        -6.3341    5.4429   51.3474 H       1  ZINC000154446008    0.1800
     27 H27         0.4175    4.2260   49.7292 H       1  ZINC000154446008    0.0900
     28 H28         0.3562    3.1282   51.1328 H       1  ZINC000154446008    0.0900
     29 H29         1.3926    2.1259   49.0166 H       1  ZINC000154446008    0.1100
     30 H30         0.0345    1.1979   49.7048 H       1  ZINC000154446008    0.0800
     31 H31         1.5309    0.1397   47.2239 H       1  ZINC000154446008    0.1100
     32 H32         4.0314    0.6036   48.0467 H       1  ZINC000154446008    0.0900
     33 H33         3.8684   -0.2893   46.5184 H       1  ZINC000154446008    0.0800
     34 H34         5.5122    1.6581   46.4576 H       1  ZINC000154446008    0.0700
     35 H35         4.2314    1.7196   45.2181 H       1  ZINC000154446008    0.0700
     36 H36         4.0425    3.1218   47.9246 H       1  ZINC000154446008    0.0700
     37 H37         4.5979    3.9219   46.4306 H       1  ZINC000154446008    0.0700
     38 H38         2.4827    3.5275   45.3353 H       1  ZINC000154446008    0.0800
     39 H39         2.1144    4.2085   46.9353 H       1  ZINC000154446008    0.0700
     40 H40        -2.2617    2.6044   47.0003 H       1  ZINC000154446008    0.1100
     41 H41        -2.3231    1.5066   48.4039 H       1  ZINC000154446008    0.0800
     42 H42        -3.2988    3.5999   49.1153 H       1  ZINC000154446008    0.1100
     43 H43        -1.9409    4.5303   48.4303 H       1  ZINC000154446008    0.0800
@<TRIPOS>BOND
     1     1     2    2
     2     2     3    1
     3     2    11   am
     4     3    10    1
     5     3     4    2
     6     4     5    1
     7     4    25    1
     8     5     6    2
     9     5    26    1
    10     6     7    1
    11     6    10    1
    12     7     8    2
    13     7     9    2
    14    11    24    1
    15    11    12    1
    16    12    13    1
    17    12    27    1
    18    12    28    1
    19    13    14    1
    20    13    29    1
    21    13    30    1
    22    14    15   am
    23    14    23    1
    24    15    16    2
    25    15    17    1
    26    17    22    1
    27    17    18    2
    28    18    19    1
    29    18    31    1
    30    19    20    1
    31    19    32    1
    32    19    33    1
    33    20    21    1
    34    20    34    1
    35    20    35    1
    36    21    22    1
    37    21    36    1
    38    21    37    1
    39    22    38    1
    40    22    39    1
    41    23    24    1
    42    23    40    1
    43    23    41    1
    44    24    42    1
    45    24    43    1
@<TRIPOS>SUBSTRUCTURE
     1 ZINC000154446008        1 TEMP              0 ****  ****    0 ROOT


##########                                Name:    ZINC000618094467
##########                DOCK_Rotatable_Bonds:                   5
##########                         Heavy_Atoms:                  27
##########                    Molecular_Weight:             370.492
##########                DOCK_Rotatable_Bonds:                   5
##########                       Formal_Charge:                0.03
##########                     HBond_Acceptors:                   5
##########                        HBond_Donors:                   0
##########                         Heavy_Atoms:                  27
##########                          Grid_Score:          -22.661440
##########                     Grid_vdw_energy:          -22.429625
##########                      Grid_es_energy:           -0.231816
##########           Internal_energy_repulsive:           79.157249

@<TRIPOS>MOLECULE
ZINC000618094467
 57 59 1 0 0
SMALL
USER_CHARGES


@<TRIPOS>ATOM
      1 C1         -6.5075    4.6981   55.6544 C.3     1  ZINC000618094467   -0.1500
      2 C2         -6.8453    5.4125   54.3443 C.3     1  ZINC000618094467   -0.1000
      3 C3         -6.0031    4.8241   53.2106 C.3     1  ZINC000618094467   -0.1100
      4 H4         -6.2204    3.7606   53.1108 H       1  ZINC000618094467    0.1000
      5 C5         -6.3410    5.5387   51.9005 C.3     1  ZINC000618094467   -0.1500
      6 C6         -4.5406    5.0111   53.5220 C.2     1  ZINC000618094467    0.5200
      7 O7         -4.1945    5.8490   54.3276 O.2     1  ZINC000618094467   -0.5000
      8 N8         -3.6172    4.2471   52.9055 N.am    1  ZINC000618094467   -0.6100
      9 C9         -4.0032    3.2251   51.9266 C.3     1  ZINC000618094467    0.1400
     10 C10        -3.0912    3.2999   50.7279 C.ar    1  ZINC000618094467   -0.1000
     11 C11        -3.4483    2.5794   49.5967 C.ar    1  ZINC000618094467   -0.1100
     12 C12        -2.6490    2.5998   48.4719 C.ar    1  ZINC000618094467   -0.1200
     13 C13        -1.4834    3.3428   48.4729 C.ar    1  ZINC000618094467   -0.1100
     14 C14        -1.1297    4.0626   49.5953 C.ar    1  ZINC000618094467   -0.1200
     15 C15        -1.9355    4.0487   50.7270 C.ar    1  ZINC000618094467   -0.0600
     16 C16        -1.4999    4.8802   51.9047 C.3     1  ZINC000618094467   -0.0800
     17 C17        -2.1805    4.4092   53.1828 C.3     1  ZINC000618094467    0.1200
     18 H18        -1.7596    3.4530   53.4938 H       1  ZINC000618094467    0.1000
     19 C19        -1.9827    5.4315   54.2722 C.2     1  ZINC000618094467    0.5500
     20 O20        -1.7693    6.5903   53.9849 O.2     1  ZINC000618094467   -0.5200
     21 N21        -2.0428    5.0580   55.5657 N.am    1  ZINC000618094467   -0.6100
     22 C22        -2.2946    3.6560   55.9232 C.3     1  ZINC000618094467    0.1200
     23 C23        -1.1344    3.1516   56.7907 C.3     1  ZINC000618094467   -0.1600
     24 H24        -1.3924    2.1844   57.2222 H       1  ZINC000618094467    0.1100
     25 C25         0.1266    3.0140   55.9352 C.3     1  ZINC000618094467   -0.1400
     26 C26        -0.8933    4.1551   57.8971 C.2     1  ZINC000618094467    0.3700
     27 O27        -0.8665    3.8066   59.0530 O.2     1  ZINC000618094467   -0.4400
     28 C28        -0.6858    5.6055   57.5201 C.3     1  ZINC000618094467   -0.1600
     29 H29         0.2499    5.7119   56.9713 H       1  ZINC000618094467    0.1100
     30 C30        -0.6418    6.4653   58.7848 C.3     1  ZINC000618094467   -0.1400
     31 C31        -1.8512    6.0473   56.6342 C.3     1  ZINC000618094467    0.1400
     32 H32        -5.4496    4.8334   55.8797 H       1  ZINC000618094467    0.0500
     33 H33        -7.1075    5.1173   56.4620 H       1  ZINC000618094467    0.0600
     34 H34        -6.7246    3.6346   55.5547 H       1  ZINC000618094467    0.0600
     35 H35        -7.9032    5.2772   54.1190 H       1  ZINC000618094467    0.0700
     36 H36        -6.6282    6.4760   54.4440 H       1  ZINC000618094467    0.0700
     37 H37        -6.2558    6.6160   52.0418 H       1  ZINC000618094467    0.0700
     38 H38        -5.6478    5.2183   51.1227 H       1  ZINC000618094467    0.0700
     39 H39        -7.3600    5.2905   51.6036 H       1  ZINC000618094467    0.0700
     40 H40        -3.9233    2.2381   52.3821 H       1  ZINC000618094467    0.0900
     41 H41        -5.0324    3.3958   51.6106 H       1  ZINC000618094467    0.1100
     42 H42        -4.3584    1.9977   49.5968 H       1  ZINC000618094467    0.1300
     43 H43        -2.9328    2.0376   47.5946 H       1  ZINC000618094467    0.1300
     44 H44        -0.8512    3.3596   47.5975 H       1  ZINC000618094467    0.1200
     45 H45        -0.2181    4.6418   49.5945 H       1  ZINC000618094467    0.1200
     46 H46        -0.4192    4.7983   52.0212 H       1  ZINC000618094467    0.0900
     47 H47        -1.7622    5.9227   51.7241 H       1  ZINC000618094467    0.1000
     48 H48        -3.2274    3.5833   56.4822 H       1  ZINC000618094467    0.0700
     49 H49        -2.3615    3.0542   55.0168 H       1  ZINC000618094467    0.0900
     50 H50         0.4360    3.9981   55.5831 H       1  ZINC000618094467    0.0600
     51 H51         0.9251    2.5745   56.5331 H       1  ZINC000618094467    0.0600
     52 H52        -0.0828    2.3714   55.0801 H       1  ZINC000618094467    0.0700
     53 H53         0.1806    6.1357   59.4197 H       1  ZINC000618094467    0.0700
     54 H54        -0.4923    7.5093   58.5094 H       1  ZINC000618094467    0.0700
     55 H55        -1.5822    6.3634   59.3264 H       1  ZINC000618094467    0.0600
     56 H56        -1.6290    7.0205   56.1966 H       1  ZINC000618094467    0.1100
     57 H57        -2.7605    6.1120   57.2318 H       1  ZINC000618094467    0.0700
@<TRIPOS>BOND
     1     1     2    1
     2     1    32    1
     3     1    33    1
     4     1    34    1
     5     2     3    1
     6     2    35    1
     7     2    36    1
     8     3     4    1
     9     3     5    1
    10     3     6    1
    11     5    37    1
    12     5    38    1
    13     5    39    1
    14     6     7    2
    15     6     8   am
    16     8    17    1
    17     8     9    1
    18     9    10    1
    19     9    40    1
    20     9    41    1
    21    10    15   ar
    22    10    11   ar
    23    11    12   ar
    24    11    42    1
    25    12    13   ar
    26    12    43    1
    27    13    14   ar
    28    13    44    1
    29    14    15   ar
    30    14    45    1
    31    15    16    1
    32    16    17    1
    33    16    46    1
    34    16    47    1
    35    17    18    1
    36    17    19    1
    37    19    20    2
    38    19    21   am
    39    21    31    1
    40    21    22    1
    41    22    23    1
    42    22    48    1
    43    22    49    1
    44    23    24    1
    45    23    25    1
    46    23    26    1
    47    25    50    1
    48    25    51    1
    49    25    52    1
    50    26    27    2
    51    26    28    1
    52    28    29    1
    53    28    30    1
    54    28    31    1
    55    30    53    1
    56    30    54    1
    57    30    55    1
    58    31    56    1
    59    31    57    1
@<TRIPOS>SUBSTRUCTURE
     1 ZINC000618094467        1 TEMP              0 ****  ****    0 ROOT


##########                                Name:    ZINC000331626032
##########                DOCK_Rotatable_Bonds:                   5
##########                         Heavy_Atoms:                  25
##########                    Molecular_Weight:              339.44
##########                DOCK_Rotatable_Bonds:                   5
##########                       Formal_Charge:        -2.16067e-07
##########                     HBond_Acceptors:                   6
##########                        HBond_Donors:                   2
##########                         Heavy_Atoms:                  25
##########                          Grid_Score:          -22.389254
##########                     Grid_vdw_energy:          -21.334576
##########                      Grid_es_energy:           -1.054677
##########           Internal_energy_repulsive:           24.872400

@<TRIPOS>MOLECULE
ZINC000331626032
 50 52 1 0 0
SMALL
USER_CHARGES


@<TRIPOS>ATOM
      1 C1          0.0218    7.0617   55.5722 C.3     1  ZINC000331626032   -0.2000
      2 C2         -0.6811    5.8466   54.9636 C.3     1  ZINC000331626032    0.0700
      3 H3         -0.2700    4.9346   55.3963 H       1  ZINC000331626032    0.1100
      4 C4         -2.1573    5.9209   55.2574 C.2     1  ZINC000331626032    0.5200
      5 O5         -2.8468    6.7451   54.6949 O.2     1  ZINC000331626032   -0.5000
      6 N6         -2.7113    5.0715   56.1451 N.am    1  ZINC000331626032   -0.5800
      7 C7         -4.1463    5.1436   56.4307 C.3     1  ZINC000331626032    0.0800
      8 C8         -1.9157    4.1207   56.7939 C.ar    1  ZINC000331626032    0.1400
      9 C9         -1.7528    2.8566   56.2423 C.ar    1  ZINC000331626032   -0.1000
     10 C10        -0.9668    1.9204   56.8851 C.ar    1  ZINC000331626032   -0.1100
     11 C11        -0.3429    2.2403   58.0769 C.ar    1  ZINC000331626032   -0.1200
     12 C12        -0.5035    3.4979   58.6290 C.ar    1  ZINC000331626032   -0.1100
     13 C13        -1.2827    4.4409   57.9877 C.ar    1  ZINC000331626032   -0.1200
     14 N14        -0.4710    5.8367   53.5097 N.3     1  ZINC000331626032   -0.5100
     15 C15         0.9254    5.5222   53.1819 C.3     1  ZINC000331626032    0.0500
     16 C16         1.1409    5.6634   51.6734 C.3     1  ZINC000331626032   -0.1100
     17 C17         0.1969    4.7093   50.9364 C.3     1  ZINC000331626032   -0.1100
     18 C18        -1.2478    5.0264   51.3325 C.3     1  ZINC000331626032   -0.0400
     19 H19        -1.4951    6.0422   51.0238 H       1  ZINC000331626032    0.1000
     20 C20        -2.1799    4.0542   50.6563 C.ar    1  ZINC000331626032    0.2300
     21 C21        -1.7848    3.3873   49.5076 C.ar    1  ZINC000331626032   -0.2900
     22 C22        -2.6726    2.5015   48.9170 C.ar    1  ZINC000331626032    0.1900
     23 N23        -3.8631    2.3203   49.4640 N.ar    1  ZINC000331626032   -0.5700
     24 C24        -4.2100    2.9741   50.5631 C.ar    1  ZINC000331626032    0.5700
     25 N25        -5.4637    2.7601   51.1091 N.pl3   1  ZINC000331626032   -0.8200
     26 N26        -3.3831    3.8231   51.1551 N.ar    1  ZINC000331626032   -0.5700
     27 C27        -1.3941    4.9039   52.8508 C.3     1  ZINC000331626032    0.0700
     28 H28        -0.3893    7.9737   55.1395 H       1  ZINC000331626032    0.0700
     29 H29        -0.1341    7.0690   56.6510 H       1  ZINC000331626032    0.0800
     30 H30         1.0896    7.0079   55.3597 H       1  ZINC000331626032    0.0700
     31 H31        -4.6866    4.4910   55.7449 H       1  ZINC000331626032    0.0600
     32 H32        -4.3292    4.8238   57.4566 H       1  ZINC000331626032    0.0800
     33 H33        -4.4911    6.1698   56.3030 H       1  ZINC000331626032    0.0800
     34 H34        -2.2404    2.6059   55.3117 H       1  ZINC000331626032    0.1200
     35 H35        -0.8398    0.9372   56.4566 H       1  ZINC000331626032    0.1300
     36 H36         0.2709    1.5063   58.5778 H       1  ZINC000331626032    0.1300
     37 H37        -0.0155    3.7446   59.5604 H       1  ZINC000331626032    0.1300
     38 H38        -1.4078    5.4229   58.4194 H       1  ZINC000331626032    0.1200
     39 H39         1.5861    6.2106   53.7091 H       1  ZINC000331626032    0.0900
     40 H40         1.1486    4.4998   53.4866 H       1  ZINC000331626032    0.0300
     41 H41         0.9312    6.6891   51.3701 H       1  ZINC000331626032    0.0800
     42 H42         2.1736    5.4147   51.4285 H       1  ZINC000331626032    0.0700
     43 H43         0.3162    4.8375   49.8607 H       1  ZINC000331626032    0.0700
     44 H44         0.4320    3.6807   51.2100 H       1  ZINC000331626032    0.0700
     45 H45        -0.8065    3.5543   49.0816 H       1  ZINC000331626032    0.1400
     46 H46        -2.3957    1.9661   48.0209 H       1  ZINC000331626032    0.1700
     47 H47        -6.0766    2.1377   50.6875 H       1  ZINC000331626032    0.4100
     48 H48        -5.7294    3.2326   51.9135 H       1  ZINC000331626032    0.4100
     49 H49        -1.1600    3.8842   53.1571 H       1  ZINC000331626032    0.0400
     50 H50        -2.4182    5.1430   53.1376 H       1  ZINC000331626032    0.0800
@<TRIPOS>BOND
     1     1     2    1
     2     1    28    1
     3     1    29    1
     4     1    30    1
     5     2     3    1
     6     2     4    1
     7     2    14    1
     8     4     5    2
     9     4     6   am
    10     6     7    1
    11     6     8    1
    12     7    31    1
    13     7    32    1
    14     7    33    1
    15     8    13   ar
    16     8     9   ar
    17     9    10   ar
    18     9    34    1
    19    10    11   ar
    20    10    35    1
    21    11    12   ar
    22    11    36    1
    23    12    13   ar
    24    12    37    1
    25    13    38    1
    26    14    27    1
    27    14    15    1
    28    15    16    1
    29    15    39    1
    30    15    40    1
    31    16    17    1
    32    16    41    1
    33    16    42    1
    34    17    18    1
    35    17    43    1
    36    17    44    1
    37    18    19    1
    38    18    20    1
    39    18    27    1
    40    20    26   ar
    41    20    21   ar
    42    21    22   ar
    43    21    45    1
    44    22    23   ar
    45    22    46    1
    46    23    24   ar
    47    24    25    1
    48    24    26   ar
    49    25    47    1
    50    25    48    1
    51    27    49    1
    52    27    50    1
@<TRIPOS>SUBSTRUCTURE
     1 ZINC000331626032        1 TEMP              0 ****  ****    0 ROOT


##########                                Name:    ZINC001010141213
##########                DOCK_Rotatable_Bonds:                   4
##########                         Heavy_Atoms:                  24
##########                    Molecular_Weight:             330.346
##########                DOCK_Rotatable_Bonds:                   4
##########                       Formal_Charge:          -0.0100003
##########                     HBond_Acceptors:                   9
##########                        HBond_Donors:                   1
##########                         Heavy_Atoms:                  24
##########                          Grid_Score:          -22.320267
##########                     Grid_vdw_energy:          -20.742853
##########                      Grid_es_energy:           -1.577415
##########           Internal_energy_repulsive:           16.027321

@<TRIPOS>MOLECULE
ZINC001010141213
 42 44 1 0 0
SMALL
USER_CHARGES


@<TRIPOS>ATOM
      1 C1          1.2493    6.7701   50.8517 C.3     1  ZINC001010141213   -0.0800
      2 C2          0.1343    5.9019   51.3754 C.2     1  ZINC001010141213   -0.1500
      3 C3         -0.6398    5.0067   50.6578 C.2     1  ZINC001010141213   -0.0400
      4 C4         -0.5408    4.7079   49.2202 C.2     1  ZINC001010141213    0.6000
      5 O5         -1.3027    5.2389   48.4348 O.2     1  ZINC001010141213   -0.5100
      6 N6          0.3943    3.8459   48.7739 N.am    1  ZINC001010141213   -0.6100
      7 C7          1.3176    3.1924   49.7121 C.3     1  ZINC001010141213    0.0900
      8 C8          1.2147    1.6738   49.5231 C.3     1  ZINC001010141213    0.0700
      9 N9          1.3290    1.3702   48.0897 N.am    1  ZINC001010141213   -0.6000
     10 C10         2.2633    0.5075   47.6435 C.2     1  ZINC001010141213    0.5900
     11 O11         2.3482    0.2643   46.4556 O.2     1  ZINC001010141213   -0.5200
     12 C12         3.1853   -0.1432   48.5992 C.2     1  ZINC001010141213    0.0300
     13 N13         4.4724    0.1166   48.5479 N.2     1  ZINC001010141213   -0.1800
     14 N14         5.3132   -0.4223   49.3548 N.am    1  ZINC001010141213   -0.4400
     15 C15         4.9255   -1.2908   50.3072 C.2     1  ZINC001010141213    0.4800
     16 O16         5.7490   -1.7857   51.0590 O.2     1  ZINC001010141213   -0.5100
     17 C17         3.5585   -1.6251   50.4307 C.2     1  ZINC001010141213   -0.1800
     18 C18         2.6778   -1.0400   49.5702 C.2     1  ZINC001010141213   -0.0400
     19 C19         0.4056    2.0238   47.1515 C.3     1  ZINC001010141213    0.1000
     20 C20         0.5048    3.5381   47.3412 C.3     1  ZINC001010141213    0.1000
     21 N21        -1.5140    4.4560   51.5514 N.pl3   1  ZINC001010141213   -0.2700
     22 C22        -2.5282    3.4493   51.2293 C.3     1  ZINC001010141213    0.0900
     23 N23        -1.3106    4.9552   52.7172 N.2     1  ZINC001010141213   -0.2800
     24 C24        -0.3335    5.8253   52.6892 C.2     1  ZINC001010141213    0.0100
     25 H25         2.1938    6.2306   50.9227 H       1  ZINC001010141213    0.0700
     26 H26         1.0534    7.0241   49.8100 H       1  ZINC001010141213    0.0600
     27 H27         1.3071    7.6835   51.4437 H       1  ZINC001010141213    0.0700
     28 H28         2.3376    3.5181   49.5082 H       1  ZINC001010141213    0.0800
     29 H29         1.0452    3.4529   50.7348 H       1  ZINC001010141213    0.1000
     30 H30         2.0215    1.1820   50.0666 H       1  ZINC001010141213    0.1400
     31 H31         0.2524    1.3231   49.8958 H       1  ZINC001010141213    0.0800
     32 H32         6.2535   -0.1976   49.2756 H       1  ZINC001010141213    0.4500
     33 H33         3.2211   -2.3192   51.1862 H       1  ZINC001010141213    0.1700
     34 H34         1.6220   -1.2610   49.6224 H       1  ZINC001010141213    0.1700
     35 H35         0.6780    1.7632   46.1288 H       1  ZINC001010141213    0.1100
     36 H36        -0.6145    1.6980   47.3554 H       1  ZINC001010141213    0.0800
     37 H37        -0.3025    4.0285   46.7972 H       1  ZINC001010141213    0.1100
     38 H38         1.4668    3.8910   46.9697 H       1  ZINC001010141213    0.0800
     39 H39        -2.1316    2.4550   51.4348 H       1  ZINC001010141213    0.0900
     40 H40        -3.4157    3.6196   51.8389 H       1  ZINC001010141213    0.1000
     41 H41        -2.7924    3.5241   50.1744 H       1  ZINC001010141213    0.0900
     42 H42         0.0402    6.3891   53.5311 H       1  ZINC001010141213    0.1900
@<TRIPOS>BOND
     1     1     2    1
     2     1    25    1
     3     1    26    1
     4     1    27    1
     5     2    24    1
     6     2     3    2
     7     3     4    1
     8     3    21    1
     9     4     5    2
    10     4     6   am
    11     6    20    1
    12     6     7    1
    13     7     8    1
    14     7    28    1
    15     7    29    1
    16     8     9    1
    17     8    30    1
    18     8    31    1
    19     9    10   am
    20     9    19    1
    21    10    11    2
    22    10    12    1
    23    12    18    1
    24    12    13    2
    25    13    14    1
    26    14    15   am
    27    14    32    1
    28    15    16    2
    29    15    17    1
    30    17    18    2
    31    17    33    1
    32    18    34    1
    33    19    20    1
    34    19    35    1
    35    19    36    1
    36    20    37    1
    37    20    38    1
    38    21    22    1
    39    21    23    1
    40    22    39    1
    41    22    40    1
    42    22    41    1
    43    23    24    2
    44    24    42    1
@<TRIPOS>SUBSTRUCTURE
     1 ZINC001010141213        1 TEMP              0 ****  ****    0 ROOT


##########                                Name:    ZINC000820901229
##########                DOCK_Rotatable_Bonds:                   3
##########                         Heavy_Atoms:                  18
##########                    Molecular_Weight:             331.233
##########                DOCK_Rotatable_Bonds:                   3
##########                       Formal_Charge:           0.0099999
##########                     HBond_Acceptors:                   5
##########                        HBond_Donors:                   1
##########                         Heavy_Atoms:                  18
##########                          Grid_Score:          -22.176498
##########                     Grid_vdw_energy:          -22.049372
##########                      Grid_es_energy:           -0.127126
##########           Internal_energy_repulsive:           19.776812

@<TRIPOS>MOLECULE
ZINC000820901229
 33 35 1 0 0
SMALL
USER_CHARGES


@<TRIPOS>ATOM
      1 O1         -3.3171    2.9606   52.0780 O.2     1  ZINC000820901229   -0.5300
      2 C2         -3.3706    2.9931   50.8633 C.2     1  ZINC000820901229    0.6000
      3 N3         -4.5567    3.1591   50.2452 N.am    1  ZINC000820901229   -0.7100
      4 C4         -5.7823    3.2945   51.0362 C.3     1  ZINC000820901229    0.1600
      5 H5         -6.6370    3.4347   50.3744 H       1  ZINC000820901229    0.1000
      6 C6         -5.6585    4.4924   51.9915 C.3     1  ZINC000820901229   -0.1300
      7 C7         -6.8918    4.6289   52.8794 C.3     1  ZINC000820901229   -0.1100
      8 C8         -7.1800    3.3261   53.6436 C.3     1  ZINC000820901229   -0.1100
      9 C9         -7.3499    2.2273   52.6148 C.3     1  ZINC000820901229    0.0800
     10 H10        -8.1148    2.5149   51.8935 H       1  ZINC000820901229    0.0700
     11 O11        -7.6110    0.9121   53.0916 O.3     1  ZINC000820901229   -0.3700
     12 C12        -7.2962    0.0345   51.9806 C.3     1  ZINC000820901229    0.0500
     13 C13        -6.2330    0.7589   51.1148 C.3     1  ZINC000820901229   -0.1500
     14 C14        -5.9868    2.0545   51.8887 C.3     1  ZINC000820901229   -0.1400
     15 H15        -5.1718    1.9313   52.6019 H       1  ZINC000820901229    0.0900
     16 C16        -2.1387    2.8570   50.0681 C.2     1  ZINC000820901229    0.0100
     17 C17        -0.9115    2.7359   50.6217 C.2     1  ZINC000820901229   -0.2200
     18 S18         0.2474    2.6025   49.3724 S.3     1  ZINC000820901229    0.3100
     19 C19        -0.9722    2.7160   48.1825 C.2     1  ZINC000820901229   -0.0100
     20 Br20       -0.6654    2.6637   46.3172 Br      1  ZINC000820901229    0.0700
     21 N21        -2.1302    2.8360   48.7321 N.2     1  ZINC000820901229   -0.4100
     22 H22        -4.5988    3.1890   49.2766 H       1  ZINC000820901229    0.4100
     23 H23        -4.7794    4.3563   52.6214 H       1  ZINC000820901229    0.0700
     24 H24        -5.5382    5.4039   51.4062 H       1  ZINC000820901229    0.0700
     25 H25        -6.7279    5.4337   53.5960 H       1  ZINC000820901229    0.0800
     26 H26        -7.7527    4.8759   52.2583 H       1  ZINC000820901229    0.0700
     27 H27        -6.3445    3.0905   54.3029 H       1  ZINC000820901229    0.0700
     28 H28        -8.0948    3.4328   54.2264 H       1  ZINC000820901229    0.0800
     29 H29        -6.8924   -0.9067   52.3538 H       1  ZINC000820901229    0.0900
     30 H30        -8.1925   -0.1517   51.3890 H       1  ZINC000820901229    0.0600
     31 H31        -5.3182    0.1692   51.0548 H       1  ZINC000820901229    0.0800
     32 H32        -6.6241    0.9674   50.1190 H       1  ZINC000820901229    0.0800
     33 H33        -0.6981    2.7257   51.6804 H       1  ZINC000820901229    0.2000
@<TRIPOS>BOND
     1     1     2    2
     2     2     3   am
     3     2    16    1
     4     3     4    1
     5     3    22    1
     6     4     5    1
     7     4    14    1
     8     4     6    1
     9     6     7    1
    10     6    23    1
    11     6    24    1
    12     7     8    1
    13     7    25    1
    14     7    26    1
    15     8     9    1
    16     8    27    1
    17     8    28    1
    18     9    10    1
    19     9    14    1
    20     9    11    1
    21    11    12    1
    22    12    13    1
    23    12    29    1
    24    12    30    1
    25    13    14    1
    26    13    31    1
    27    13    32    1
    28    14    15    1
    29    16    21    1
    30    16    17    2
    31    17    18    1
    32    17    33    1
    33    18    19    1
    34    19    20    1
    35    19    21    2
@<TRIPOS>SUBSTRUCTURE
     1 ZINC000820901229        1 TEMP              0 ****  ****    0 ROOT


##########                                Name:    ZINC000950547210
##########                DOCK_Rotatable_Bonds:                   5
##########                         Heavy_Atoms:                  25
##########                    Molecular_Weight:              346.47
##########                DOCK_Rotatable_Bonds:                   5
##########                       Formal_Charge:         5.58794e-07
##########                     HBond_Acceptors:                   5
##########                        HBond_Donors:                   1
##########                         Heavy_Atoms:                  25
##########                          Grid_Score:          -22.051311
##########                     Grid_vdw_energy:          -22.052425
##########                      Grid_es_energy:            0.001114
##########           Internal_energy_repulsive:           18.763393

@<TRIPOS>MOLECULE
ZINC000950547210
 55 58 1 0 0
SMALL
USER_CHARGES


@<TRIPOS>ATOM
      1 O1         -0.2835    4.9512   50.9782 O.2     1  ZINC000950547210   -0.5200
      2 C2         -1.0522    4.0438   50.7401 C.2     1  ZINC000950547210    0.5200
      3 N3         -2.1841    3.9132   51.4598 N.am    1  ZINC000950547210   -0.7300
      4 C4         -2.4832    4.8638   52.5336 C.3     1  ZINC000950547210    0.1300
      5 H5         -1.6162    5.5013   52.7071 H       1  ZINC000950547210    0.0900
      6 C6         -3.6805    5.7283   52.1318 C.3     1  ZINC000950547210   -0.1300
      7 C7         -3.9732    6.7436   53.2388 C.3     1  ZINC000950547210   -0.1300
      8 C8         -4.3266    5.9981   54.5296 C.3     1  ZINC000950547210    0.1000
      9 N9         -3.2425    5.0578   54.8445 N.am    1  ZINC000950547210   -0.6100
     10 C10        -2.6475    5.0758   56.0537 C.2     1  ZINC000950547210    0.5600
     11 O11        -3.0069    5.8756   56.8964 O.2     1  ZINC000950547210   -0.5200
     12 C12        -1.5634    4.1280   56.3542 C.2     1  ZINC000950547210   -0.1400
     13 C13        -1.8739    2.8865   56.6810 C.2     1  ZINC000950547210   -0.1500
     14 C14        -0.8346    1.8530   57.0123 C.3     1  ZINC000950547210    0.0900
     15 O15         0.4523    2.2929   56.5740 O.3     1  ZINC000950547210   -0.3700
     16 C16         0.7726    3.6187   57.0125 C.3     1  ZINC000950547210    0.0600
     17 C17        -0.1389    4.6043   56.2730 C.3     1  ZINC000950547210   -0.1100
     18 C18        -2.8189    4.0971   53.8166 C.3     1  ZINC000950547210    0.1000
     19 C19        -0.7446    3.0660   49.6355 C.3     1  ZINC000950547210   -0.1000
     20 H20        -1.3073    2.1465   49.7970 H       1  ZINC000950547210    0.1000
     21 C21         0.7532    2.7535   49.6335 C.3     1  ZINC000950547210   -0.1100
     22 C22         1.3563    3.1553   48.2860 C.3     1  ZINC000950547210   -0.0900
     23 C23         0.6701    2.3709   47.1659 C.3     1  ZINC000950547210   -0.1100
     24 C24        -0.8276    2.6834   47.1679 C.3     1  ZINC000950547210   -0.1100
     25 C25        -1.1400    3.6762   48.2894 C.3     1  ZINC000950547210   -0.0600
     26 C26        -0.3501    4.9668   48.0627 C.3     1  ZINC000950547210   -0.1300
     27 C27         1.1477    4.6542   48.0607 C.3     1  ZINC000950547210   -0.1200
     28 H28        -2.8009    3.1897   51.2668 H       1  ZINC000950547210    0.4000
     29 H29        -3.4527    6.2562   51.2058 H       1  ZINC000950547210    0.0800
     30 H30        -4.5532    5.0927   51.9820 H       1  ZINC000950547210    0.0700
     31 H31        -3.0922    7.3634   53.4063 H       1  ZINC000950547210    0.0700
     32 H32        -4.8111    7.3743   52.9418 H       1  ZINC000950547210    0.0900
     33 H33        -4.4391    6.7125   55.3451 H       1  ZINC000950547210    0.0900
     34 H34        -5.2580    5.4490   54.3911 H       1  ZINC000950547210    0.0700
     35 H35        -2.9156    2.6031   56.7118 H       1  ZINC000950547210    0.1200
     36 H36        -0.8142    1.6934   58.0903 H       1  ZINC000950547210    0.0700
     37 H37        -1.0851    0.9161   56.5148 H       1  ZINC000950547210    0.1100
     38 H38         0.6091    3.6985   58.0872 H       1  ZINC000950547210    0.0600
     39 H39         1.8144    3.8398   56.7800 H       1  ZINC000950547210    0.1000
     40 H40         0.1690    4.6706   55.2295 H       1  ZINC000950547210    0.0900
     41 H41        -0.0625    5.5876   56.7369 H       1  ZINC000950547210    0.0900
     42 H42        -3.6271    3.3927   53.6195 H       1  ZINC000950547210    0.0700
     43 H43        -1.9373    3.5573   54.1621 H       1  ZINC000950547210    0.1000
     44 H44         1.2421    3.3123   50.4315 H       1  ZINC000950547210    0.0700
     45 H45         0.9018    1.6857   49.7940 H       1  ZINC000950547210    0.0700
     46 H46         2.4233    2.9328   48.2846 H       1  ZINC000950547210    0.0700
     47 H47         1.0997    2.6572   46.2059 H       1  ZINC000950547210    0.0600
     48 H48         0.8187    1.3031   47.3264 H       1  ZINC000950547210    0.0600
     49 H49        -1.1093    3.1182   46.2088 H       1  ZINC000950547210    0.0700
     50 H50        -1.3903    1.7640   47.3293 H       1  ZINC000950547210    0.0600
     51 H51        -2.2069    3.8988   48.2907 H       1  ZINC000950547210    0.0800
     52 H52        -0.6317    5.4015   47.1036 H       1  ZINC000950547210    0.0600
     53 H53        -0.5725    5.6741   48.8616 H       1  ZINC000950547210    0.0900
     54 H54         1.6365    5.2131   48.8586 H       1  ZINC000950547210    0.0600
     55 H55         1.5773    4.9406   47.1007 H       1  ZINC000950547210    0.0600
@<TRIPOS>BOND
     1     1     2    2
     2     2     3   am
     3     2    19    1
     4     3     4    1
     5     3    28    1
     6     4     5    1
     7     4    18    1
     8     4     6    1
     9     6     7    1
    10     6    29    1
    11     6    30    1
    12     7     8    1
    13     7    31    1
    14     7    32    1
    15     8     9    1
    16     8    33    1
    17     8    34    1
    18     9    10   am
    19     9    18    1
    20    10    11    2
    21    10    12    1
    22    12    17    1
    23    12    13    2
    24    13    14    1
    25    13    35    1
    26    14    15    1
    27    14    36    1
    28    14    37    1
    29    15    16    1
    30    16    17    1
    31    16    38    1
    32    16    39    1
    33    17    40    1
    34    17    41    1
    35    18    42    1
    36    18    43    1
    37    19    20    1
    38    19    25    1
    39    19    21    1
    40    21    22    1
    41    21    44    1
    42    21    45    1
    43    22    27    1
    44    22    23    1
    45    22    46    1
    46    23    24    1
    47    23    47    1
    48    23    48    1
    49    24    25    1
    50    24    49    1
    51    24    50    1
    52    25    26    1
    53    25    51    1
    54    26    27    1
    55    26    52    1
    56    26    53    1
    57    27    54    1
    58    27    55    1
@<TRIPOS>SUBSTRUCTURE
     1 ZINC000950547210        1 TEMP              0 ****  ****    0 ROOT


##########                                Name:    ZINC000931749147
##########                DOCK_Rotatable_Bonds:                   5
##########                         Heavy_Atoms:                  25
##########                    Molecular_Weight:             354.397
##########                DOCK_Rotatable_Bonds:                   5
##########                       Formal_Charge:        -4.76837e-07
##########                     HBond_Acceptors:                   7
##########                        HBond_Donors:                   1
##########                         Heavy_Atoms:                  25
##########                          Grid_Score:          -21.948391
##########                     Grid_vdw_energy:          -22.154636
##########                      Grid_es_energy:            0.206246
##########           Internal_energy_repulsive:          153.021149

@<TRIPOS>MOLECULE
ZINC000931749147
 49 51 1 0 0
SMALL
USER_CHARGES


@<TRIPOS>ATOM
      1 C1         -9.4990    2.2600   54.4226 C.3     1  ZINC000931749147   -0.1100
      2 C2         -8.6861    1.4303   53.4624 C.ar    1  ZINC000931749147   -0.1300
      3 C3         -9.2108    0.2544   52.9440 C.ar    1  ZINC000931749147    0.1800
      4 N4        -10.4962   -0.1620   53.3125 N.am    1  ZINC000931749147   -0.6800
      5 C5        -11.5723    0.3077   52.6508 C.2     1  ZINC000931749147    0.7100
      6 O6        -11.4271    1.0929   51.7337 O.2     1  ZINC000931749147   -0.5500
      7 N7        -12.8092   -0.0930   53.0054 N.am    1  ZINC000931749147   -0.6200
      8 C8        -13.9990    0.4060   52.2978 C.3     1  ZINC000931749147    0.0700
      9 C9        -15.0016    0.9173   53.3387 C.3     1  ZINC000931749147    0.0500
     10 O10       -15.2252   -0.1012   54.3168 O.3     1  ZINC000931749147   -0.3700
     11 C11       -14.0605   -0.4611   55.0638 C.3     1  ZINC000931749147    0.0500
     12 C12       -13.0095   -1.0472   54.1076 C.3     1  ZINC000931749147    0.1300
     13 H13       -13.3617   -2.0011   53.7151 H       1  ZINC000931749147    0.0900
     14 C14       -11.6905   -1.2531   54.8552 C.3     1  ZINC000931749147   -0.1100
     15 C15       -11.9549   -2.0147   56.1556 C.3     1  ZINC000931749147   -0.1000
     16 C16       -12.5615   -3.3838   55.8332 C.3     1  ZINC000931749147   -0.1500
     17 C17       -12.7493   -4.1691   57.1339 C.3     1  ZINC000931749147    0.0600
     18 O18       -11.4907   -4.2947   57.7990 O.3     1  ZINC000931749147   -0.3800
     19 C19       -10.8983   -3.0475   58.1672 C.3     1  ZINC000931749147    0.0600
     20 C20       -10.6361   -2.2172   56.9080 C.3     1  ZINC000931749147   -0.1500
     21 C21        -8.4599   -0.5084   52.0594 C.ar    1  ZINC000931749147   -0.1200
     22 C22        -7.1924   -0.0968   51.6961 C.ar    1  ZINC000931749147   -0.1100
     23 C23        -6.6692    1.0759   52.2130 C.ar    1  ZINC000931749147    0.0500
     24 F24        -5.4293    1.4766   51.8562 F       1  ZINC000931749147   -0.1300
     25 C25        -7.4188    1.8429   53.0922 C.ar    1  ZINC000931749147    0.0900
     26 F26        -6.9068    2.9871   53.5959 F       1  ZINC000931749147   -0.1200
     27 H27       -10.0953    2.9817   53.8645 H       1  ZINC000931749147    0.0800
     28 H28       -10.1591    1.6093   54.9962 H       1  ZINC000931749147    0.0700
     29 H29        -8.8303    2.7889   55.1018 H       1  ZINC000931749147    0.0800
     30 H30       -10.6121   -0.7884   54.0440 H       1  ZINC000931749147    0.4100
     31 H31       -13.7150    1.2200   51.6309 H       1  ZINC000931749147    0.0800
     32 H32       -14.4488   -0.4020   51.7208 H       1  ZINC000931749147    0.0900
     33 H33       -14.6003    1.8067   53.8244 H       1  ZINC000931749147    0.0600
     34 H34       -15.9430    1.1632   52.8474 H       1  ZINC000931749147    0.1100
     35 H35       -13.6559    0.4234   55.5558 H       1  ZINC000931749147    0.0600
     36 H36       -14.3249   -1.2067   55.8135 H       1  ZINC000931749147    0.1100
     37 H37       -11.0049   -1.8263   54.2313 H       1  ZINC000931749147    0.1100
     38 H38       -11.2483   -0.2838   55.0853 H       1  ZINC000931749147    0.0700
     39 H39       -12.6459   -1.4455   56.7775 H       1  ZINC000931749147    0.0700
     40 H40       -13.5274   -3.2488   55.3466 H       1  ZINC000931749147    0.0700
     41 H41       -11.8920   -3.9319   55.1703 H       1  ZINC000931749147    0.0700
     42 H42       -13.4504   -3.6404   57.7798 H       1  ZINC000931749147    0.0500
     43 H43       -13.1409   -5.1606   56.9067 H       1  ZINC000931749147    0.0900
     44 H44       -11.5752   -2.5042   58.8265 H       1  ZINC000931749147    0.0500
     45 H45        -9.9564   -3.2310   58.6842 H       1  ZINC000931749147    0.0900
     46 H46        -9.9277   -2.7417   56.2667 H       1  ZINC000931749147    0.0700
     47 H47       -10.2250   -1.2478   57.1899 H       1  ZINC000931749147    0.0700
     48 H48        -8.8669   -1.4237   51.6557 H       1  ZINC000931749147    0.1800
     49 H49        -6.6088   -0.6907   51.0082 H       1  ZINC000931749147    0.1500
@<TRIPOS>BOND
     1     1     2    1
     2     1    27    1
     3     1    28    1
     4     1    29    1
     5     2    25   ar
     6     2     3   ar
     7     3     4    1
     8     3    21   ar
     9     4     5   am
    10     4    30    1
    11     5     6    2
    12     5     7   am
    13     7    12    1
    14     7     8    1
    15     8     9    1
    16     8    31    1
    17     8    32    1
    18     9    10    1
    19     9    33    1
    20     9    34    1
    21    10    11    1
    22    11    12    1
    23    11    35    1
    24    11    36    1
    25    12    13    1
    26    12    14    1
    27    14    15    1
    28    14    37    1
    29    14    38    1
    30    15    20    1
    31    15    16    1
    32    15    39    1
    33    16    17    1
    34    16    40    1
    35    16    41    1
    36    17    18    1
    37    17    42    1
    38    17    43    1
    39    18    19    1
    40    19    20    1
    41    19    44    1
    42    19    45    1
    43    20    46    1
    44    20    47    1
    45    21    22   ar
    46    21    48    1
    47    22    23   ar
    48    22    49    1
    49    23    24    1
    50    23    25   ar
    51    25    26    1
@<TRIPOS>SUBSTRUCTURE
     1 ZINC000931749147        1 TEMP              0 ****  ****    0 ROOT


##########                                Name:    ZINC000364058410
##########                DOCK_Rotatable_Bonds:                   5
##########                         Heavy_Atoms:                  25
##########                    Molecular_Weight:             358.464
##########                DOCK_Rotatable_Bonds:                   5
##########                       Formal_Charge:           0.0100002
##########                     HBond_Acceptors:                   7
##########                        HBond_Donors:                   0
##########                         Heavy_Atoms:                  25
##########                          Grid_Score:          -21.698074
##########                     Grid_vdw_energy:          -21.151432
##########                      Grid_es_energy:           -0.546642
##########           Internal_energy_repulsive:           61.590382

@<TRIPOS>MOLECULE
ZINC000364058410
 47 50 1 0 0
SMALL
USER_CHARGES


@<TRIPOS>ATOM
      1 C1        -13.9261    2.3759   61.7591 C.3     1  ZINC000364058410   -0.0700
      2 C2        -12.7233    1.4718   61.6758 C.2     1  ZINC000364058410   -0.2500
      3 C3        -11.6603    1.6346   60.8545 C.2     1  ZINC000364058410    0.0800
      4 N4        -10.8032    0.6179   61.0845 N.pl3   1  ZINC000364058410   -0.3600
      5 C5         -9.5193    0.4042   60.4122 C.3     1  ZINC000364058410    0.1300
      6 C6         -9.0583   -1.0647   60.4090 C.3     1  ZINC000364058410    0.1100
      7 N7         -9.7763   -1.1826   59.1250 N.am    1  ZINC000364058410   -0.6500
      8 C8        -10.3359   -2.2034   58.4459 C.2     1  ZINC000364058410    0.5600
      9 O9        -10.3009   -3.3265   58.9022 O.2     1  ZINC000364058410   -0.5000
     10 C10       -11.0049   -1.9493   57.1197 C.3     1  ZINC000364058410    0.1400
     11 H11       -10.6642   -0.9961   56.7152 H       1  ZINC000364058410    0.0900
     12 C12       -10.6540   -3.0763   56.1432 C.3     1  ZINC000364058410   -0.1200
     13 C13       -11.4451   -2.8873   54.8468 C.3     1  ZINC000364058410   -0.1200
     14 C14       -12.9441   -2.9576   55.1471 C.3     1  ZINC000364058410   -0.1400
     15 C15       -13.3209   -1.8292   56.1123 C.3     1  ZINC000364058410    0.1000
     16 N16       -12.4624   -1.9142   57.3020 N.am    1  ZINC000364058410   -0.6000
     17 C17       -13.0020   -1.9644   58.5360 C.2     1  ZINC000364058410    0.5900
     18 O18       -12.2802   -2.0347   59.5133 O.2     1  ZINC000364058410   -0.4900
     19 C19       -14.4582   -1.9342   58.7010 C.2     1  ZINC000364058410   -0.2600
     20 C20       -15.2279   -0.8059   58.7432 C.2     1  ZINC000364058410   -0.0600
     21 C21       -16.5676   -1.0676   58.9067 C.2     1  ZINC000364058410   -0.1400
     22 C22       -16.8860   -2.3643   58.9954 C.2     1  ZINC000364058410   -0.2400
     23 S23       -15.4951   -3.3442   58.8685 S.3     1  ZINC000364058410    0.2100
     24 C24        -9.6355    0.2665   58.8833 C.3     1  ZINC000364058410    0.0900
     25 N25       -11.3579   -0.1967   62.0801 N.2     1  ZINC000364058410   -0.3000
     26 C26       -12.5058    0.3193   62.4379 C.2     1  ZINC000364058410    0.0500
     27 H27       -13.7429    3.1573   62.4966 H       1  ZINC000364058410    0.0600
     28 H28       -14.1069    2.8308   60.7852 H       1  ZINC000364058410    0.0600
     29 H29       -14.7985    1.7936   62.0558 H       1  ZINC000364058410    0.0600
     30 H30       -11.5225    2.4349   60.1424 H       1  ZINC000364058410    0.1700
     31 H31        -8.7499    1.1067   60.7324 H       1  ZINC000364058410    0.1300
     32 H32        -7.9787   -1.1861   60.3213 H       1  ZINC000364058410    0.1100
     33 H33        -9.4911   -1.6628   61.2109 H       1  ZINC000364058410    0.0900
     34 H34        -9.5865   -3.0495   55.9252 H       1  ZINC000364058410    0.0800
     35 H35       -10.9107   -4.0372   56.5892 H       1  ZINC000364058410    0.0800
     36 H36       -11.2065   -1.9157   54.4142 H       1  ZINC000364058410    0.0700
     37 H37       -11.1788   -3.6741   54.1410 H       1  ZINC000364058410    0.0800
     38 H38       -13.5065   -2.8462   54.2200 H       1  ZINC000364058410    0.0800
     39 H39       -13.1792   -3.9195   55.6024 H       1  ZINC000364058410    0.0700
     40 H40       -13.1714   -0.8660   55.6245 H       1  ZINC000364058410    0.0800
     41 H41       -14.3651   -1.9338   56.4067 H       1  ZINC000364058410    0.0900
     42 H42       -14.8240    0.1920   58.6572 H       1  ZINC000364058410    0.1500
     43 H43       -17.3088   -0.2838   58.9600 H       1  ZINC000364058410    0.1500
     44 H44       -17.8900   -2.7404   59.1257 H       1  ZINC000364058410    0.1700
     45 H45       -10.5293    0.7314   58.4671 H       1  ZINC000364058410    0.0900
     46 H46        -8.7255    0.5362   58.3474 H       1  ZINC000364058410    0.1100
     47 H47       -13.1735   -0.0799   63.1869 H       1  ZINC000364058410    0.1800
@<TRIPOS>BOND
     1     1     2    1
     2     1    27    1
     3     1    28    1
     4     1    29    1
     5     2    26    1
     6     2     3    2
     7     3     4    1
     8     3    30    1
     9     4     5    1
    10     4    25    1
    11     5    24    1
    12     5     6    1
    13     5    31    1
    14     6     7    1
    15     6    32    1
    16     6    33    1
    17     7     8   am
    18     7    24    1
    19     8     9    2
    20     8    10    1
    21    10    11    1
    22    10    16    1
    23    10    12    1
    24    12    13    1
    25    12    34    1
    26    12    35    1
    27    13    14    1
    28    13    36    1
    29    13    37    1
    30    14    15    1
    31    14    38    1
    32    14    39    1
    33    15    16    1
    34    15    40    1
    35    15    41    1
    36    16    17   am
    37    17    18    2
    38    17    19    1
    39    19    23    1
    40    19    20    2
    41    20    21    1
    42    20    42    1
    43    21    22    2
    44    21    43    1
    45    22    23    1
    46    22    44    1
    47    24    45    1
    48    24    46    1
    49    25    26    2
    50    26    47    1
@<TRIPOS>SUBSTRUCTURE
     1 ZINC000364058410        1 TEMP              0 ****  ****    0 ROOT


##########                                Name:    ZINC000541315701
##########                DOCK_Rotatable_Bonds:                   4
##########                         Heavy_Atoms:                  25
##########                    Molecular_Weight:             422.709
##########                DOCK_Rotatable_Bonds:                   4
##########                       Formal_Charge:           0.0300003
##########                     HBond_Acceptors:                   6
##########                        HBond_Donors:                   0
##########                         Heavy_Atoms:                  25
##########                          Grid_Score:          -21.482456
##########                     Grid_vdw_energy:          -21.155102
##########                      Grid_es_energy:           -0.327355
##########           Internal_energy_repulsive:           15.890658

@<TRIPOS>MOLECULE
ZINC000541315701
 42 44 1 0 0
SMALL
USER_CHARGES


@<TRIPOS>ATOM
      1 C1        -11.2718   -1.6807   54.7745 C.3     1  ZINC000541315701    0.0800
      2 N2        -11.9939   -1.9283   56.0249 N.am    1  ZINC000541315701   -0.5700
      3 C3        -11.7905   -1.1284   57.0904 C.2     1  ZINC000541315701    0.5400
      4 O4        -11.0096   -0.2037   57.0140 O.2     1  ZINC000541315701   -0.5000
      5 C5        -12.5332   -1.3833   58.3767 C.3     1  ZINC000541315701   -0.1100
      6 H6        -13.4762   -1.8953   58.1852 H       1  ZINC000541315701    0.1300
      7 C7        -11.6603   -2.1841   59.3703 C.3     1  ZINC000541315701   -0.1500
      8 C8        -10.9914   -1.1225   60.2155 C.2     1  ZINC000541315701    0.5200
      9 O9        -10.0225   -1.3055   60.9217 O.2     1  ZINC000541315701   -0.5200
     10 N10       -11.6268    0.0529   60.0695 N.am    1  ZINC000541315701   -0.6100
     11 C11       -11.2332    1.2942   60.7407 C.3     1  ZINC000541315701    0.0900
     12 C12       -12.7662   -0.0668   59.1507 C.3     1  ZINC000541315701    0.1900
     13 H13       -12.7856    0.7778   58.4619 H       1  ZINC000541315701    0.1100
     14 C14       -14.0564   -0.1362   59.9261 C.ar    1  ZINC000541315701   -0.0900
     15 C15       -15.1433    0.6192   59.5278 C.ar    1  ZINC000541315701   -0.1000
     16 C16       -16.3277    0.5558   60.2384 C.ar    1  ZINC000541315701   -0.1000
     17 C17       -16.4252   -0.2625   61.3477 C.ar    1  ZINC000541315701   -0.1000
     18 C18       -15.3375   -1.0189   61.7469 C.ar    1  ZINC000541315701   -0.0300
     19 Cl19      -15.4594   -2.0477   63.1400 Cl      1  ZINC000541315701   -0.0600
     20 C20       -14.1546   -0.9594   61.0322 C.ar    1  ZINC000541315701   -0.0900
     21 C21       -12.8917   -2.9916   56.1127 C.ar    1  ZINC000541315701    0.3800
     22 N22       -12.5044   -4.1333   56.6582 N.ar    1  ZINC000541315701   -0.4700
     23 C23       -13.3220   -5.1638   56.7613 C.ar    1  ZINC000541315701    0.1300
     24 C24       -14.6209   -5.0864   56.2997 C.ar    1  ZINC000541315701   -0.1600
     25 C25       -15.0674   -3.9064   55.7204 C.ar    1  ZINC000541315701   -0.0400
     26 C26       -14.1882   -2.8408   55.6312 C.ar    1  ZINC000541315701   -0.1300
     27 Br27      -14.7377   -1.2073   54.8531 Br      1  ZINC000541315701   -0.0200
     28 H28       -10.2773   -1.2955   54.9995 H       1  ZINC000541315701    0.0900
     29 H29       -11.1829   -2.6124   54.2157 H       1  ZINC000541315701    0.0800
     30 H30       -11.8182   -0.9500   54.1780 H       1  ZINC000541315701    0.0700
     31 H31       -12.2826   -2.8293   59.9905 H       1  ZINC000541315701    0.1200
     32 H32       -10.9144   -2.7718   58.8351 H       1  ZINC000541315701    0.1100
     33 H33       -10.3589    1.1085   61.3645 H       1  ZINC000541315701    0.0900
     34 H34       -10.9926    2.0507   59.9937 H       1  ZINC000541315701    0.0700
     35 H35       -12.0555    1.6470   61.3633 H       1  ZINC000541315701    0.0600
     36 H36       -15.0673    1.2595   58.6613 H       1  ZINC000541315701    0.1300
     37 H37       -17.1766    1.1463   59.9268 H       1  ZINC000541315701    0.1400
     38 H38       -17.3502   -0.3114   61.9031 H       1  ZINC000541315701    0.1400
     39 H39       -13.3053   -1.5496   61.3433 H       1  ZINC000541315701    0.1400
     40 H40       -12.9704   -6.0800   57.2123 H       1  ZINC000541315701    0.1700
     41 H41       -15.2828   -5.9353   56.3882 H       1  ZINC000541315701    0.1500
     42 H42       -16.0788   -3.8203   55.3517 H       1  ZINC000541315701    0.1500
@<TRIPOS>BOND
     1     1     2    1
     2     1    28    1
     3     1    29    1
     4     1    30    1
     5     2     3   am
     6     2    21    1
     7     3     4    2
     8     3     5    1
     9     5     6    1
    10     5    12    1
    11     5     7    1
    12     7     8    1
    13     7    31    1
    14     7    32    1
    15     8     9    2
    16     8    10   am
    17    10    11    1
    18    10    12    1
    19    11    33    1
    20    11    34    1
    21    11    35    1
    22    12    13    1
    23    12    14    1
    24    14    20   ar
    25    14    15   ar
    26    15    16   ar
    27    15    36    1
    28    16    17   ar
    29    16    37    1
    30    17    18   ar
    31    17    38    1
    32    18    19    1
    33    18    20   ar
    34    20    39    1
    35    21    26   ar
    36    21    22   ar
    37    22    23   ar
    38    23    24   ar
    39    23    40    1
    40    24    25   ar
    41    24    41    1
    42    25    26   ar
    43    25    42    1
    44    26    27    1
@<TRIPOS>SUBSTRUCTURE
     1 ZINC000541315701        1 TEMP              0 ****  ****    0 ROOT


##########                                Name:    ZINC001023407238
##########                DOCK_Rotatable_Bonds:                   7
##########                         Heavy_Atoms:                  25
##########                    Molecular_Weight:             349.387
##########                DOCK_Rotatable_Bonds:                   7
##########                       Formal_Charge:          -0.0300008
##########                     HBond_Acceptors:                   8
##########                        HBond_Donors:                   2
##########                         Heavy_Atoms:                  25
##########                          Grid_Score:          -21.476040
##########                     Grid_vdw_energy:          -23.334799
##########                      Grid_es_energy:            1.858759
##########           Internal_energy_repulsive:           19.458469

@<TRIPOS>MOLECULE
ZINC001023407238
 48 50 1 0 0
SMALL
USER_CHARGES


@<TRIPOS>ATOM
      1 C1          0.8455    3.7393   44.7703 C.3     1  ZINC001023407238   -0.0900
      2 C2          1.4937    2.6167   45.5389 C.2     1  ZINC001023407238   -0.1100
      3 C3          0.9483    1.9308   46.6032 C.2     1  ZINC001023407238   -0.0500
      4 C4         -0.3731    2.1603   47.1971 C.2     1  ZINC001023407238    0.6100
      5 O5         -1.3760    1.8075   46.6048 O.2     1  ZINC001023407238   -0.5100
      6 N6         -0.4766    2.7620   48.3986 N.am    1  ZINC001023407238   -0.6100
      7 C7         -1.7323    3.0525   49.1062 C.3     1  ZINC001023407238    0.0800
      8 C8         -1.3589    3.7186   50.4473 C.3     1  ZINC001023407238    0.0900
      9 H9         -1.4102    4.8044   50.3660 H       1  ZINC001023407238    0.0800
     10 O10        -2.2078    3.2514   51.4975 O.3     1  ZINC001023407238   -0.5500
     11 C11         0.1043    3.2534   50.6710 C.3     1  ZINC001023407238    0.1400
     12 H12         0.1344    2.2566   51.1109 H       1  ZINC001023407238    0.1200
     13 N13         0.8394    4.2123   51.4993 N.am    1  ZINC001023407238   -0.7200
     14 C14         1.8595    3.7914   52.2731 C.2     1  ZINC001023407238    0.5200
     15 O15         2.1679    2.6185   52.2847 O.2     1  ZINC001023407238   -0.5300
     16 C16         2.6169    4.7782   53.1239 C.3     1  ZINC001023407238   -0.1300
     17 C17         2.1013    4.7120   54.5629 C.3     1  ZINC001023407238   -0.1100
     18 H18         2.5042    5.5331   55.1560 H       1  ZINC001023407238    0.1100
     19 C19         0.5560    4.7159   54.5950 C.3     1  ZINC001023407238    0.0600
     20 O20         0.2133    3.8532   55.7197 O.3     1  ZINC001023407238   -0.3500
     21 C21         1.1510    2.9072   55.8717 C.2     1  ZINC001023407238    0.4800
     22 O22         0.9933    1.8599   56.4532 O.2     1  ZINC001023407238   -0.4600
     23 C23         2.4413    3.3495   55.2070 C.3     1  ZINC001023407238   -0.1800
     24 C24         0.6508    3.2324   49.2240 C.3     1  ZINC001023407238    0.1000
     25 N25         1.8696    0.9909   47.0067 N.pl3   1  ZINC001023407238   -0.4200
     26 C26         1.6960    0.0434   48.1105 C.3     1  ZINC001023407238    0.0700
     27 C27         2.9638    1.0882   46.2130 C.2     1  ZINC001023407238    0.0100
     28 C28         2.7591    2.0705   45.3031 C.2     1  ZINC001023407238   -0.2000
     29 H29         0.2745    3.3276   43.9380 H       1  ZINC001023407238    0.0600
     30 H30         0.1778    4.2933   45.4301 H       1  ZINC001023407238    0.0600
     31 H31         1.6153    4.4090   44.3867 H       1  ZINC001023407238    0.0700
     32 H32        -2.3437    3.7318   48.5124 H       1  ZINC001023407238    0.0800
     33 H33        -2.2763    2.1262   49.2912 H       1  ZINC001023407238    0.0800
     34 H34        -1.9785    2.3716   51.8266 H       1  ZINC001023407238    0.3900
     35 H35         0.5920    5.1502   51.4909 H       1  ZINC001023407238    0.4100
     36 H36         3.6787    4.5329   53.1067 H       1  ZINC001023407238    0.1000
     37 H37         2.4700    5.7843   52.7313 H       1  ZINC001023407238    0.1100
     38 H38         0.1814    5.7258   54.7619 H       1  ZINC001023407238    0.1200
     39 H39         0.1550    4.3087   53.6668 H       1  ZINC001023407238    0.0800
     40 H40         2.7381    2.6334   54.4407 H       1  ZINC001023407238    0.1100
     41 H41         3.2315    3.4613   55.9494 H       1  ZINC001023407238    0.1200
     42 H42         1.4941    2.5459   49.1469 H       1  ZINC001023407238    0.0900
     43 H43         0.9473    4.2350   48.9157 H       1  ZINC001023407238    0.0800
     44 H44         1.3222   -0.9036   47.7210 H       1  ZINC001023407238    0.0800
     45 H45         2.6545   -0.1196   48.6035 H       1  ZINC001023407238    0.0900
     46 H46         0.9825    0.4482   48.8281 H       1  ZINC001023407238    0.0800
     47 H47         3.8523    0.4794   46.2909 H       1  ZINC001023407238    0.1700
     48 H48         3.4530    2.3814   44.5361 H       1  ZINC001023407238    0.1400
@<TRIPOS>BOND
     1     1     2    1
     2     1    29    1
     3     1    30    1
     4     1    31    1
     5     2    28    1
     6     2     3    2
     7     3     4    1
     8     3    25    1
     9     4     5    2
    10     4     6   am
    11     6    24    1
    12     6     7    1
    13     7     8    1
    14     7    32    1
    15     7    33    1
    16     8     9    1
    17     8    10    1
    18     8    11    1
    19    10    34    1
    20    11    12    1
    21    11    13    1
    22    11    24    1
    23    13    14   am
    24    13    35    1
    25    14    15    2
    26    14    16    1
    27    16    17    1
    28    16    36    1
    29    16    37    1
    30    17    18    1
    31    17    23    1
    32    17    19    1
    33    19    20    1
    34    19    38    1
    35    19    39    1
    36    20    21    1
    37    21    22    2
    38    21    23    1
    39    23    40    1
    40    23    41    1
    41    24    42    1
    42    24    43    1
    43    25    26    1
    44    25    27    1
    45    26    44    1
    46    26    45    1
    47    26    46    1
    48    27    28    2
    49    27    47    1
    50    28    48    1
@<TRIPOS>SUBSTRUCTURE
     1 ZINC001023407238        1 TEMP              0 ****  ****    0 ROOT


##########                                Name:    ZINC000569288350
##########                DOCK_Rotatable_Bonds:                   3
##########                         Heavy_Atoms:                  19
##########                    Molecular_Weight:             393.559
##########                DOCK_Rotatable_Bonds:                   3
##########                       Formal_Charge:           0.0299999
##########                     HBond_Acceptors:                   5
##########                        HBond_Donors:                   1
##########                         Heavy_Atoms:                  19
##########                          Grid_Score:          -20.182848
##########                     Grid_vdw_energy:          -19.044701
##########                      Grid_es_energy:           -1.138147
##########           Internal_energy_repulsive:            3.862823

@<TRIPOS>MOLECULE
ZINC000569288350
 26 27 1 0 0
SMALL
USER_CHARGES


@<TRIPOS>ATOM
      1 O1         -1.7117    2.8832   50.6541 O.2     1  ZINC000569288350   -0.4800
      2 C2         -2.1087    3.5365   49.7086 C.2     1  ZINC000569288350    0.5700
      3 N3         -3.2955    4.1714   49.7791 N.am    1  ZINC000569288350   -0.6600
      4 C4         -4.0731    4.0742   50.9381 C.ar    1  ZINC000569288350    0.1800
      5 C5         -3.8520    4.9423   51.9989 C.ar    1  ZINC000569288350   -0.1200
      6 C6         -4.6207    4.8449   53.1428 C.ar    1  ZINC000569288350   -0.0600
      7 C7         -5.6101    3.8839   53.2335 C.ar    1  ZINC000569288350   -0.1500
      8 C8         -5.8349    3.0154   52.1781 C.ar    1  ZINC000569288350    0.1300
      9 F9         -6.8030    2.0775   52.2696 F       1  ZINC000569288350   -0.1200
     10 C10        -5.0720    3.1123   51.0274 C.ar    1  ZINC000569288350   -0.1000
     11 Cl11       -5.3530    2.0249   49.7038 Cl      1  ZINC000569288350   -0.0400
     12 C12        -1.2882    3.6390   48.4857 C.ar    1  ZINC000569288350   -0.1400
     13 C13        -1.4846    2.7426   47.4303 C.ar    1  ZINC000569288350    0.1400
     14 F14        -2.4268    1.7792   47.5259 F       1  ZINC000569288350   -0.1200
     15 C15        -0.7113    2.8460   46.2883 C.ar    1  ZINC000569288350   -0.1300
     16 C16         0.2529    3.8315   46.1898 C.ar    1  ZINC000569288350   -0.0600
     17 C17         0.4523    4.7214   47.2312 C.ar    1  ZINC000569288350   -0.0900
     18 C18        -0.3152    4.6358   48.3741 C.ar    1  ZINC000569288350   -0.0500
     19 I19        -0.0097    5.9851   49.9475 I       1  ZINC000569288350    0.0000
     20 H20        -3.6104    4.6958   49.0263 H       1  ZINC000569288350    0.4200
     21 H21        -3.0789    5.6934   51.9301 H       1  ZINC000569288350    0.1600
     22 H22        -4.4481    5.5205   53.9675 H       1  ZINC000569288350    0.1500
     23 H23        -6.2090    3.8098   54.1293 H       1  ZINC000569288350    0.1500
     24 H24        -0.8610    2.1550   45.4719 H       1  ZINC000569288350    0.1500
     25 H25         0.8541    3.9074   45.2959 H       1  ZINC000569288350    0.1500
     26 H26         1.2079    5.4884   47.1465 H       1  ZINC000569288350    0.1500
@<TRIPOS>BOND
     1     1     2    2
     2     2     3   am
     3     2    12    1
     4     3     4    1
     5     3    20    1
     6     4    10   ar
     7     4     5   ar
     8     5     6   ar
     9     5    21    1
    10     6     7   ar
    11     6    22    1
    12     7     8   ar
    13     7    23    1
    14     8     9    1
    15     8    10   ar
    16    10    11    1
    17    12    18   ar
    18    12    13   ar
    19    13    14    1
    20    13    15   ar
    21    15    16   ar
    22    15    24    1
    23    16    17   ar
    24    16    25    1
    25    17    18   ar
    26    17    26    1
    27    18    19    1
@<TRIPOS>SUBSTRUCTURE
     1 ZINC000569288350        1 TEMP              0 ****  ****    0 ROOT


##########                                Name:    ZINC000482962466
##########                DOCK_Rotatable_Bonds:                   2
##########                         Heavy_Atoms:                  25
##########                    Molecular_Weight:             404.303
##########                DOCK_Rotatable_Bonds:                   2
##########                       Formal_Charge:           0.0200002
##########                     HBond_Acceptors:                   4
##########                        HBond_Donors:                   0
##########                         Heavy_Atoms:                  25
##########                          Grid_Score:          -19.517977
##########                     Grid_vdw_energy:          -19.422615
##########                      Grid_es_energy:           -0.095362
##########           Internal_energy_repulsive:           20.206081

@<TRIPOS>MOLECULE
ZINC000482962466
 47 50 1 0 0
SMALL
USER_CHARGES


@<TRIPOS>ATOM
      1 C1          3.3192    3.0342   44.2846 C.3     1  ZINC000482962466   -0.1400
      2 C2          2.5629    3.3596   45.5742 C.3     1  ZINC000482962466    0.0700
      3 H3          3.1226    2.9815   46.4297 H       1  ZINC000482962466    0.0700
      4 C4          1.1789    2.7018   45.5363 C.3     1  ZINC000482962466    0.0800
      5 N5          0.4052    3.1792   46.6932 N.am    1  ZINC000482962466   -0.6100
      6 C6         -0.2204    2.3131   47.5149 C.2     1  ZINC000482962466    0.5600
      7 O7         -0.1503    1.1177   47.3052 O.2     1  ZINC000482962466   -0.5200
      8 C8         -0.9915    2.8166   48.6704 C.ar    1  ZINC000482962466   -0.1100
      9 C9         -0.3572    3.6168   49.6372 C.ar    1  ZINC000482962466   -0.0700
     10 C10        -1.0441    4.0913   50.7075 C.ar    1  ZINC000482962466   -0.1000
     11 C11        -2.4086    3.7843   50.8606 C.ar    1  ZINC000482962466   -0.0400
     12 C12        -3.1400    4.2640   51.9596 C.ar    1  ZINC000482962466   -0.0700
     13 C13        -4.4602    3.9503   52.0808 C.ar    1  ZINC000482962466   -0.0800
     14 Br14       -5.4394    4.5997   53.5624 Br      1  ZINC000482962466   -0.0400
     15 C15        -5.1005    3.1578   51.1284 C.ar    1  ZINC000482962466   -0.1000
     16 C16        -4.4243    2.6750   50.0510 C.ar    1  ZINC000482962466   -0.0900
     17 C17        -3.0598    2.9784   49.8919 C.ar    1  ZINC000482962466   -0.0500
     18 C18        -2.3352    2.5015   48.7900 C.ar    1  ZINC000482962466   -0.0700
     19 C19         0.3344    4.6307   46.9263 C.3     1  ZINC000482962466    0.0700
     20 C20         1.7582    5.1949   46.8939 C.3     1  ZINC000482962466    0.0800
     21 C21         1.7025    6.7239   46.9403 C.3     1  ZINC000482962466   -0.1100
     22 C22         3.1313    7.2745   46.9885 C.3     1  ZINC000482962466   -0.1500
     23 C23         3.8581    6.6801   48.1977 C.3     1  ZINC000482962466    0.0600
     24 O24         3.8474    5.2541   48.1057 O.3     1  ZINC000482962466   -0.3700
     25 C25         2.5387    4.6797   48.1049 C.3     1  ZINC000482962466    0.0400
     26 O26         2.4087    4.7762   45.6928 O.3     1  ZINC000482962466   -0.3500
     27 H27         4.3023    3.5038   44.3115 H       1  ZINC000482962466    0.0700
     28 H28         3.4347    1.9541   44.1938 H       1  ZINC000482962466    0.0800
     29 H29         2.7590    3.4127   43.4295 H       1  ZINC000482962466    0.0700
     30 H30         0.6671    2.9765   44.6139 H       1  ZINC000482962466    0.0800
     31 H31         1.2860    1.6182   45.5883 H       1  ZINC000482962466    0.1000
     32 H32         0.6901    3.8566   49.5270 H       1  ZINC000482962466    0.1400
     33 H33        -0.5430    4.7044   51.4420 H       1  ZINC000482962466    0.1400
     34 H34        -2.6579    4.8784   52.7055 H       1  ZINC000482962466    0.1400
     35 H35        -6.1481    2.9238   51.2480 H       1  ZINC000482962466    0.1400
     36 H36        -4.9325    2.0620   49.3215 H       1  ZINC000482962466    0.1400
     37 H37        -2.8197    1.8900   48.0431 H       1  ZINC000482962466    0.1400
     38 H38        -0.2642    5.0992   46.1450 H       1  ZINC000482962466    0.0900
     39 H39        -0.1154    4.8246   47.9001 H       1  ZINC000482962466    0.1000
     40 H40         1.1975    7.0975   46.0495 H       1  ZINC000482962466    0.0800
     41 H41         1.1588    7.0421   47.8298 H       1  ZINC000482962466    0.0800
     42 H42         3.6586    6.9995   46.0751 H       1  ZINC000482962466    0.0800
     43 H43         3.1004    8.3603   47.0797 H       1  ZINC000482962466    0.0800
     44 H44         4.8884    7.0355   48.2131 H       1  ZINC000482962466    0.1000
     45 H45         3.3534    6.9890   49.1130 H       1  ZINC000482962466    0.0500
     46 H46         2.0175    4.9611   49.0198 H       1  ZINC000482962466    0.0600
     47 H47         2.6183    3.5939   48.0509 H       1  ZINC000482962466    0.1000
@<TRIPOS>BOND
     1     1     2    1
     2     1    27    1
     3     1    28    1
     4     1    29    1
     5     2     3    1
     6     2    26    1
     7     2     4    1
     8     4     5    1
     9     4    30    1
    10     4    31    1
    11     5     6   am
    12     5    19    1
    13     6     7    2
    14     6     8    1
    15     8    18   ar
    16     8     9   ar
    17     9    10   ar
    18     9    32    1
    19    10    11   ar
    20    10    33    1
    21    11    17   ar
    22    11    12   ar
    23    12    13   ar
    24    12    34    1
    25    13    14    1
    26    13    15   ar
    27    15    16   ar
    28    15    35    1
    29    16    17   ar
    30    16    36    1
    31    17    18   ar
    32    18    37    1
    33    19    20    1
    34    19    38    1
    35    19    39    1
    36    20    25    1
    37    20    21    1
    38    20    26    1
    39    21    22    1
    40    21    40    1
    41    21    41    1
    42    22    23    1
    43    22    42    1
    44    22    43    1
    45    23    24    1
    46    23    44    1
    47    23    45    1
    48    24    25    1
    49    25    46    1
    50    25    47    1
@<TRIPOS>SUBSTRUCTURE
     1 ZINC000482962466        1 TEMP              0 ****  ****    0 ROOT

