
##########                                Name:     oleObject80.pdb
##########                DOCK_Rotatable_Bonds:                  14
##########                         Heavy_Atoms:                  51
##########                    Molecular_Weight:             703.283
##########                DOCK_Rotatable_Bonds:                  14
##########                       Formal_Charge:         0.000299793
##########                     HBond_Acceptors:                  10
##########                        HBond_Donors:                   3
##########                         Heavy_Atoms:                  51
##########                          Grid_Score:          -47.235874
##########                     Grid_vdw_energy:          -47.090904
##########                      Grid_es_energy:           -0.144972
##########           Internal_energy_repulsive:           29.458220

@<TRIPOS>MOLECULE
oleObject80.pdb
 94 99 1 0 0
SMALL
NO_CHARGES


@<TRIPOS>ATOM
      1 C          -9.7801    4.1883   60.2770 C.ar    1  UNL        -0.0620
      2 C          -9.8217    2.9436   59.6329 C.ar    1  UNL        -0.0590
      3 C         -10.2599    1.7931   60.3170 C.ar    1  UNL        -0.0456
      4 C         -10.6631    1.8921   61.6731 C.ar    1  UNL        -0.0185
      5 C         -10.6171    3.1539   62.3069 C.ar    1  UNL        -0.0565
      6 C         -10.1797    4.2930   61.6152 C.ar    1  UNL        -0.0619
      7 C         -11.1383    0.6503   62.4485 C.3     1  UNL         0.0931
      8 C         -10.5743    0.5563   63.8775 C.ar    1  UNL         0.0683
      9 C          -9.2144    0.2354   64.1191 C.ar    1  UNL        -0.0272
     10 C          -8.7696    0.1608   65.4525 C.ar    1  UNL        -0.0559
     11 C          -9.6777    0.4094   66.4916 C.ar    1  UNL        -0.0435
     12 C         -11.0030    0.7289   66.1630 C.ar    1  UNL         0.0272
     13 N         -11.4379    0.8026   64.8913 N.ar    1  UNL        -0.2587
     14 C          -8.2262   -0.0273   62.9881 C.3     1  UNL        -0.0379
     15 N         -12.6089    0.4130   62.3739 N.am    1  UNL        -0.2918
     16 C         -13.1098   -0.7800   61.8405 C.2     1  UNL         0.2180
     17 O         -12.3789   -1.7429   61.6745 O.2     1  UNL        -0.2772
     18 C         -14.6499   -0.9444   61.8007 C.3     1  UNL         0.0385
     19 C         -15.0723   -2.4312   61.7057 C.3     1  UNL        -0.0289
     20 C         -14.8018   -3.0175   60.3049 C.3     1  UNL        -0.0010
     21 N         -15.4896   -2.2445   59.2486 N.4     1  UNL        -0.3010
     22 C         -15.1315   -0.8056   59.2548 C.3     1  UNL        -0.0010
     23 C         -15.3162   -0.1492   60.6466 C.3     1  UNL        -0.0289
     24 C         -15.3556   -2.8965   57.9270 C.3     1  UNL         0.0222
     25 C         -13.9182   -2.8645   57.3682 C.3     1  UNL         0.0661
     26 O         -13.9703   -3.3007   55.9982 O.3     1  UNL        -0.3432
     27 C         -13.0947   -2.8624   55.0234 C.ar    1  UNL         0.0937
     28 C         -11.7627   -2.5071   55.3176 C.ar    1  UNL        -0.0284
     29 C         -10.9066   -2.0648   54.2956 C.ar    1  UNL        -0.0381
     30 C         -11.3568   -1.9828   52.9667 C.ar    1  UNL         0.0319
     31 C         -12.6941   -2.3171   52.6783 C.ar    1  UNL        -0.0194
     32 C         -13.5550   -2.7586   53.6965 C.ar    1  UNL         0.0727
     33 CL        -15.2104   -3.1668   53.2854 Cl      1  UNL        -0.0814
     34 N         -10.4784   -1.5220   51.9878 N.pl3   1  UNL        -0.3136
     35 C          -9.3523   -0.7031   52.0643 C.ar    1  UNL         0.0489
     36 C          -9.4899    0.6273   52.4980 C.ar    1  UNL         0.0488
     37 N          -8.4504    1.4771   52.6178 N.ar    1  UNL        -0.2543
     38 C          -7.1984    1.0584   52.3297 C.ar    1  UNL         0.0703
     39 C          -6.9727   -0.2761   51.9026 C.ar    1  UNL        -0.0339
     40 C          -8.0543   -1.1622   51.7745 C.ar    1  UNL        -0.0371
     41 C          -6.0888    2.0627   52.4930 C.ar    1  UNL         0.0009
     42 C          -4.7680    1.7911   52.0500 C.ar    1  UNL        -0.0402
     43 C          -3.7197    2.7233   52.1978 C.ar    1  UNL         0.0375
     44 C          -3.9967    3.9646   52.8073 C.ar    1  UNL        -0.0496
     45 C          -5.2909    4.2579   53.2591 C.ar    1  UNL        -0.0608
     46 C          -6.3222    3.3203   53.1063 C.ar    1  UNL        -0.0528
     47 C          -2.3374    2.3685   51.7053 C.2     1  UNL         0.2403
     48 O          -1.3648    3.0665   51.9295 O.2     1  UNL        -0.2722
     49 N          -2.2000    1.2050   50.9782 N.am    1  UNL        -0.3251
     50 C         -13.4920    1.4469   62.9590 C.3     1  UNL         0.0037
     51 C         -10.2878    0.4664   59.5635 C.3     1  UNL        -0.0394
     52 H          -9.4411    5.0690   59.7391 H       1  UNL         0.0623
     53 H          -9.5111    2.8750   58.5942 H       1  UNL         0.0626
     54 H         -10.9285    3.2650   63.3407 H       1  UNL         0.0627
     55 H         -10.1522    5.2560   62.1172 H       1  UNL         0.0623
     56 H         -10.6784   -0.1898   61.9220 H       1  UNL         0.0626
     57 H          -7.7365   -0.0856   65.6808 H       1  UNL         0.0627
     58 H          -9.3612    0.3583   67.5291 H       1  UNL         0.0639
     59 H         -11.7390    0.9317   66.9399 H       1  UNL         0.0840
     60 H          -8.4773   -0.9522   62.4539 H       1  UNL         0.0280
     61 H          -7.2007   -0.1330   63.3636 H       1  UNL         0.0280
     62 H          -8.2239    0.7956   62.2627 H       1  UNL         0.0280
     63 H         -15.0508   -0.5306   62.7333 H       1  UNL         0.0402
     64 H         -16.1456   -2.5138   61.9205 H       1  UNL         0.0288
     65 H         -14.5578   -3.0333   62.4623 H       1  UNL         0.0288
     66 H         -15.1479   -4.0590   60.2908 H       1  UNL         0.0431
     67 H         -13.7190   -3.0244   60.1192 H       1  UNL         0.0431
     68 H         -15.7548   -0.2543   58.5411 H       1  UNL         0.0431
     69 H         -14.0894   -0.6893   58.9324 H       1  UNL         0.0431
     70 H         -16.3925   -0.0772   60.8498 H       1  UNL         0.0288
     71 H         -14.9344    0.8795   60.6275 H       1  UNL         0.0288
     72 H         -16.0051   -2.3842   57.2052 H       1  UNL         0.0455
     73 H         -15.6917   -3.9398   57.9899 H       1  UNL         0.0455
     74 H         -13.2712   -3.5324   57.9498 H       1  UNL         0.0586
     75 H         -13.5266   -1.8409   57.4266 H       1  UNL         0.0586
     76 H         -11.3798   -2.5670   56.3311 H       1  UNL         0.0652
     77 H          -9.8828   -1.7932   54.5376 H       1  UNL         0.0644
     78 H         -13.0802   -2.2169   51.6688 H       1  UNL         0.0659
     79 H         -10.7026   -1.8311   51.0505 H       1  UNL         0.1528
     80 H         -10.4695    1.0313   52.7503 H       1  UNL         0.0861
     81 H          -5.9755   -0.6279   51.6621 H       1  UNL         0.0646
     82 H          -7.8759   -2.1896   51.4730 H       1  UNL         0.0644
     83 H          -4.5438    0.8314   51.5975 H       1  UNL         0.0638
     84 H          -3.2186    4.7098   52.9394 H       1  UNL         0.0631
     85 H          -5.4967    5.2159   53.7285 H       1  UNL         0.0623
     86 H          -7.3152    3.5809   53.4612 H       1  UNL         0.0630
     87 H          -1.2917    0.9299   50.6294 H       1  UNL         0.1458
     88 H          -3.0186    0.6360   50.8033 H       1  UNL         0.1458
     89 H         -12.9336    2.3424   63.2511 H       1  UNL         0.0433
     90 H         -13.9885    1.0567   63.8551 H       1  UNL         0.0433
     91 H         -14.2530    1.7371   62.2238 H       1  UNL         0.0433
     92 H          -9.9823    0.5873   58.5168 H       1  UNL         0.0280
     93 H         -11.2955    0.0338   59.5574 H       1  UNL         0.0280
     94 H          -9.6060   -0.2630   60.0180 H       1  UNL         0.0280
@<TRIPOS>BOND
     1     1     2   ar
     2     1     6   ar
     3     1    52    1
     4     2     3   ar
     5     2    53    1
     6     3     4   ar
     7     3    51    1
     8     4     5   ar
     9     4     7    1
    10     5     6   ar
    11     5    54    1
    12     6    55    1
    13     7     8    1
    14     7    15    1
    15     7    56    1
    16     8     9   ar
    17     8    13   ar
    18     9    10   ar
    19     9    14    1
    20    10    11   ar
    21    10    57    1
    22    11    12   ar
    23    11    58    1
    24    12    13   ar
    25    12    59    1
    26    14    60    1
    27    14    61    1
    28    14    62    1
    29    15    16   am
    30    15    50    1
    31    16    17    2
    32    16    18    1
    33    18    19    1
    34    18    23    1
    35    18    63    1
    36    19    20    1
    37    19    64    1
    38    19    65    1
    39    20    21    1
    40    20    66    1
    41    20    67    1
    42    21    22    1
    43    21    24    1
    44    22    23    1
    45    22    68    1
    46    22    69    1
    47    23    70    1
    48    23    71    1
    49    24    25    1
    50    24    72    1
    51    24    73    1
    52    25    26    1
    53    25    74    1
    54    25    75    1
    55    26    27    1
    56    27    28   ar
    57    27    32   ar
    58    28    29   ar
    59    28    76    1
    60    29    30   ar
    61    29    77    1
    62    30    31   ar
    63    30    34    1
    64    31    32   ar
    65    31    78    1
    66    32    33    1
    67    34    35    1
    68    34    79    1
    69    35    36   ar
    70    35    40   ar
    71    36    37   ar
    72    36    80    1
    73    37    38   ar
    74    38    39   ar
    75    38    41    1
    76    39    40   ar
    77    39    81    1
    78    40    82    1
    79    41    42   ar
    80    41    46   ar
    81    42    43   ar
    82    42    83    1
    83    43    44   ar
    84    43    47    1
    85    44    45   ar
    86    44    84    1
    87    45    46   ar
    88    45    85    1
    89    46    86    1
    90    47    48    2
    91    47    49   am
    92    49    87    1
    93    49    88    1
    94    50    89    1
    95    50    90    1
    96    50    91    1
    97    51    92    1
    98    51    93    1
    99    51    94    1
@<TRIPOS>SUBSTRUCTURE
     1 UNL         1 TEMP              0 ****  ****    0 ROOT


##########                                Name:     oleObject79.pdb
##########                DOCK_Rotatable_Bonds:                  12
##########                         Heavy_Atoms:                  53
##########                    Molecular_Weight:             725.376
##########                DOCK_Rotatable_Bonds:                  12
##########                       Formal_Charge:          0.00050066
##########                     HBond_Acceptors:                   8
##########                        HBond_Donors:                   4
##########                         Heavy_Atoms:                  53
##########                          Grid_Score:          -39.906460
##########                     Grid_vdw_energy:          -40.005840
##########                      Grid_es_energy:            0.099382
##########           Internal_energy_repulsive:           30.073118

@<TRIPOS>MOLECULE
oleObject79.pdb
 102 108 1 0 0
SMALL
NO_CHARGES


@<TRIPOS>ATOM
      1 C          -9.6499    2.3997   59.7998 C.ar    1  UNL        -0.0620
      2 C          -9.4530    1.2616   60.5940 C.ar    1  UNL        -0.0590
      3 C         -10.5084    0.3614   60.8394 C.ar    1  UNL        -0.0456
      4 C         -11.7881    0.6062   60.2742 C.ar    1  UNL        -0.0185
      5 C         -11.9659    1.7578   59.4770 C.ar    1  UNL        -0.0565
      6 C         -10.9088    2.6480   59.2409 C.ar    1  UNL        -0.0619
      7 C         -12.9667   -0.3705   60.4622 C.3     1  UNL         0.0931
      8 C         -13.8370   -0.1114   61.7062 C.ar    1  UNL         0.0683
      9 C         -14.6511   -1.1310   62.2627 C.ar    1  UNL        -0.0272
     10 C         -15.4224   -0.8278   63.4005 C.ar    1  UNL        -0.0559
     11 C         -15.3602    0.4628   63.9452 C.ar    1  UNL        -0.0435
     12 C         -14.5269    1.4101   63.3329 C.ar    1  UNL         0.0272
     13 N         -13.7870    1.1298   62.2441 N.ar    1  UNL        -0.2587
     14 C         -14.7176   -2.5352   61.6707 C.3     1  UNL        -0.0379
     15 N         -13.7315   -0.5463   59.1959 N.am    1  UNL        -0.2918
     16 C         -13.2181   -1.3342   58.1634 C.2     1  UNL         0.2179
     17 O         -12.0324   -1.6205   58.1439 O.2     1  UNL        -0.2772
     18 C         -14.0888   -1.4563   56.8839 C.3     1  UNL         0.0361
     19 C         -13.8979   -2.8091   56.1399 C.3     1  UNL        -0.0412
     20 C         -12.5475   -2.9216   55.3796 C.3     1  UNL        -0.0453
     21 C         -12.2359   -1.7189   54.4397 C.3     1  UNL        -0.0139
     22 C         -10.7416   -1.7966   54.0204 C.3     1  UNL         0.0171
     23 N         -10.4086   -0.7399   53.0435 N.pl3   1  UNL        -0.3290
     24 C         -11.1710   -0.8256   51.7825 C.3     1  UNL         0.0115
     25 C         -12.6919   -0.7833   52.0620 C.3     1  UNL        -0.0368
     26 C         -13.1087   -1.8080   53.1468 C.3     1  UNL        -0.0446
     27 C          -9.3088    0.1060   53.2214 C.ar    1  UNL         0.0476
     28 C          -9.5113    1.3786   53.7903 C.ar    1  UNL        -0.0375
     29 C          -8.4427    2.2722   53.9603 C.ar    1  UNL        -0.0388
     30 C          -7.1485    1.9235   53.5448 C.ar    1  UNL         0.0318
     31 C          -6.9341    0.6477   52.9918 C.ar    1  UNL        -0.0202
     32 C          -7.9992   -0.2534   52.8236 C.ar    1  UNL         0.0636
     33 CL         -7.6333   -1.7846   52.0472 Cl      1  UNL        -0.0822
     34 N          -6.1122    2.8365   53.7293 N.pl3   1  UNL        -0.3149
     35 C          -4.7953    2.8448   53.2725 C.ar    1  UNL         0.0302
     36 C          -4.4485    2.4256   51.9749 C.ar    1  UNL        -0.0402
     37 C          -3.1140    2.4734   51.5413 C.ar    1  UNL        -0.0525
     38 C          -2.0812    2.9491   52.3868 C.ar    1  UNL        -0.0182
     39 C          -2.4510    3.3845   53.6835 C.ar    1  UNL        -0.0525
     40 C          -3.7870    3.3409   54.1145 C.ar    1  UNL        -0.0402
     41 C          -0.6536    3.0003   51.9248 C.ar    1  UNL        -0.0177
     42 C           0.4186    3.0473   52.8519 C.ar    1  UNL        -0.0439
     43 C           1.7665    3.0988   52.4344 C.ar    1  UNL         0.0111
     44 C           2.0455    3.1045   51.0520 C.ar    1  UNL        -0.0518
     45 C           1.0031    3.0573   50.1154 C.ar    1  UNL        -0.0609
     46 C          -0.3304    3.0047   50.5460 C.ar    1  UNL        -0.0543
     47 C           2.8039    3.1397   53.3715 C.2     1  UNL         0.1014
     48 N           2.5934    3.0334   54.6319 N.3     1  UNL        -0.2892
     49 N           4.0760    3.3001   52.9822 N.3     1  UNL        -0.2870
     50 C         -12.4678   -0.3836   55.2133 C.3     1  UNL        -0.0453
     51 C         -13.8528   -0.2906   55.8886 C.3     1  UNL        -0.0412
     52 C         -15.0528    0.1098   59.0855 C.3     1  UNL         0.0037
     53 C         -10.2166   -0.8672   61.6944 C.3     1  UNL        -0.0394
     54 H          -8.8290    3.0855   59.6142 H       1  UNL         0.0623
     55 H          -8.4699    1.0752   61.0167 H       1  UNL         0.0626
     56 H         -12.9330    1.9675   59.0326 H       1  UNL         0.0627
     57 H         -11.0658    3.5271   58.6228 H       1  UNL         0.0623
     58 H         -12.5228   -1.3452   60.6708 H       1  UNL         0.0626
     59 H         -16.0595   -1.5799   63.8572 H       1  UNL         0.0627
     60 H         -15.9435    0.7235   64.8233 H       1  UNL         0.0639
     61 H         -14.4479    2.4234   63.7250 H       1  UNL         0.0840
     62 H         -15.0904   -2.5139   60.6395 H       1  UNL         0.0280
     63 H         -15.3892   -3.1847   62.2458 H       1  UNL         0.0280
     64 H         -13.7298   -3.0122   61.6658 H       1  UNL         0.0280
     65 H         -15.1342   -1.4170   57.2135 H       1  UNL         0.0401
     66 H         -14.7168   -2.9316   55.4198 H       1  UNL         0.0275
     67 H         -13.9912   -3.6408   56.8501 H       1  UNL         0.0275
     68 H         -12.5353   -3.8575   54.8061 H       1  UNL         0.0273
     69 H         -11.7357   -3.0200   56.1098 H       1  UNL         0.0273
     70 H         -10.5359   -2.7793   53.5763 H       1  UNL         0.0474
     71 H         -10.1126   -1.6995   54.9150 H       1  UNL         0.0474
     72 H         -10.9273   -1.7707   51.2807 H       1  UNL         0.0468
     73 H         -10.8962   -0.0121   51.1000 H       1  UNL         0.0468
     74 H         -13.2405   -0.9855   51.1336 H       1  UNL         0.0283
     75 H         -12.9802    0.2263   52.3776 H       1  UNL         0.0283
     76 H         -13.0049   -2.8128   52.7165 H       1  UNL         0.0273
     77 H         -14.1734   -1.6853   53.3763 H       1  UNL         0.0273
     78 H         -10.5046    1.6779   54.1119 H       1  UNL         0.0644
     79 H          -8.6261    3.2472   54.4030 H       1  UNL         0.0643
     80 H          -5.9359    0.3448   52.6915 H       1  UNL         0.0659
     81 H          -6.3659    3.6486   54.2770 H       1  UNL         0.1528
     82 H          -5.2117    2.0779   51.2872 H       1  UNL         0.0643
     83 H          -2.8833    2.1246   50.5396 H       1  UNL         0.0630
     84 H          -1.7008    3.7815   54.3600 H       1  UNL         0.0630
     85 H          -4.0382    3.6898   55.1122 H       1  UNL         0.0643
     86 H           0.1971    3.0354   53.9146 H       1  UNL         0.0637
     87 H           3.0715    3.1328   50.6956 H       1  UNL         0.0630
     88 H           1.2290    3.0624   49.0528 H       1  UNL         0.0623
     89 H          -1.1182    2.9864   49.7994 H       1  UNL         0.0629
     90 H           1.7123    2.5471   54.8111 H       1  UNL         0.1889
     91 H           4.7506    3.7268   53.6147 H       1  UNL         0.1258
     92 H           4.5513    2.5407   52.4977 H       1  UNL         0.1258
     93 H         -12.3330    0.4838   54.5576 H       1  UNL         0.0273
     94 H         -11.6991   -0.2900   55.9889 H       1  UNL         0.0273
     95 H         -14.6374   -0.3031   55.1226 H       1  UNL         0.0275
     96 H         -13.9480    0.6787   56.3887 H       1  UNL         0.0275
     97 H         -15.1166    0.7041   58.1672 H       1  UNL         0.0433
     98 H         -15.2403    0.7812   59.9311 H       1  UNL         0.0433
     99 H         -15.8371   -0.6571   59.0670 H       1  UNL         0.0433
    100 H          -9.1967   -0.8496   62.0984 H       1  UNL         0.0280
    101 H         -10.3179   -1.7878   61.1061 H       1  UNL         0.0280
    102 H         -10.9032   -0.9273   62.5481 H       1  UNL         0.0280
@<TRIPOS>BOND
     1     1     2   ar
     2     1     6   ar
     3     1    54    1
     4     2     3   ar
     5     2    55    1
     6     3     4   ar
     7     3    53    1
     8     4     5   ar
     9     4     7    1
    10     5     6   ar
    11     5    56    1
    12     6    57    1
    13     7     8    1
    14     7    15    1
    15     7    58    1
    16     8     9   ar
    17     8    13   ar
    18     9    10   ar
    19     9    14    1
    20    10    11   ar
    21    10    59    1
    22    11    12   ar
    23    11    60    1
    24    12    13   ar
    25    12    61    1
    26    14    62    1
    27    14    63    1
    28    14    64    1
    29    15    16   am
    30    15    52    1
    31    16    17    2
    32    16    18    1
    33    18    19    1
    34    18    51    1
    35    18    65    1
    36    19    20    1
    37    19    66    1
    38    19    67    1
    39    20    21    1
    40    20    68    1
    41    20    69    1
    42    21    22    1
    43    21    26    1
    44    21    50    1
    45    22    23    1
    46    22    70    1
    47    22    71    1
    48    23    24    1
    49    23    27    1
    50    24    25    1
    51    24    72    1
    52    24    73    1
    53    25    26    1
    54    25    74    1
    55    25    75    1
    56    26    76    1
    57    26    77    1
    58    27    28   ar
    59    27    32   ar
    60    28    29   ar
    61    28    78    1
    62    29    30   ar
    63    29    79    1
    64    30    31   ar
    65    30    34    1
    66    31    32   ar
    67    31    80    1
    68    32    33    1
    69    34    35    1
    70    34    81    1
    71    35    36   ar
    72    35    40   ar
    73    36    37   ar
    74    36    82    1
    75    37    38   ar
    76    37    83    1
    77    38    39   ar
    78    38    41    1
    79    39    40   ar
    80    39    84    1
    81    40    85    1
    82    41    42   ar
    83    41    46   ar
    84    42    43   ar
    85    42    86    1
    86    43    44   ar
    87    43    47    1
    88    44    45   ar
    89    44    87    1
    90    45    46   ar
    91    45    88    1
    92    46    89    1
    93    47    48    1
    94    47    49    1
    95    48    90    1
    96    49    91    1
    97    49    92    1
    98    50    51    1
    99    50    93    1
   100    50    94    1
   101    51    95    1
   102    51    96    1
   103    52    97    1
   104    52    98    1
   105    52    99    1
   106    53   100    1
   107    53   101    1
   108    53   102    1
@<TRIPOS>SUBSTRUCTURE
     1 UNL         1 TEMP              0 ****  ****    0 ROOT


##########                                Name:     oleObject52.pdb
##########                DOCK_Rotatable_Bonds:                  10
##########                         Heavy_Atoms:                  38
##########                    Molecular_Weight:              533.07
##########                DOCK_Rotatable_Bonds:                  10
##########                       Formal_Charge:         0.000300027
##########                     HBond_Acceptors:                   8
##########                        HBond_Donors:                   0
##########                         Heavy_Atoms:                  38
##########                          Grid_Score:          -39.723026
##########                     Grid_vdw_energy:          -39.399532
##########                      Grid_es_energy:           -0.323496
##########           Internal_energy_repulsive:           22.501329

@<TRIPOS>MOLECULE
oleObject52.pdb
 71 74 1 0 0
SMALL
NO_CHARGES


@<TRIPOS>ATOM
      1 C          -9.1434    1.0674   57.4485 C.ar    1  UNL        -0.0596
      2 C          -9.0699    0.3824   58.6707 C.ar    1  UNL        -0.0314
      3 C         -10.1797   -0.3471   59.1477 C.ar    1  UNL         0.0800
      4 C         -11.3723   -0.3914   58.3887 C.ar    1  UNL         0.0089
      5 C         -11.4327    0.3078   57.1640 C.ar    1  UNL        -0.0541
      6 C         -10.3253    1.0310   56.6963 C.ar    1  UNL        -0.0617
      7 C         -12.5780   -1.1835   58.9171 C.3     1  UNL         0.0953
      8 C         -13.3377   -0.4294   60.0226 C.ar    1  UNL         0.0684
      9 C         -13.8861   -1.0994   61.1450 C.ar    1  UNL        -0.0272
     10 C         -14.5566   -0.3363   62.1193 C.ar    1  UNL        -0.0559
     11 C         -14.6581    1.0519   61.9501 C.ar    1  UNL        -0.0435
     12 C         -14.0826    1.6338   60.8109 C.ar    1  UNL         0.0272
     13 N         -13.4395    0.9129   59.8736 N.ar    1  UNL        -0.2587
     14 C         -13.7592   -2.6059   61.3358 C.3     1  UNL        -0.0379
     15 N         -13.4497   -1.7552   57.8512 N.am    1  UNL        -0.2917
     16 C         -12.8973   -2.5444   56.8367 C.2     1  UNL         0.2180
     17 O         -11.7665   -2.9880   56.9478 O.2     1  UNL        -0.2772
     18 C         -13.8653   -3.1042   55.7632 C.3     1  UNL         0.0385
     19 C         -13.3444   -4.4226   55.1416 C.3     1  UNL        -0.0289
     20 C         -12.1685   -4.1818   54.1704 C.3     1  UNL        -0.0010
     21 N         -12.5378   -3.2338   53.0937 N.4     1  UNL        -0.3010
     22 C         -13.0187   -1.9342   53.6120 C.3     1  UNL        -0.0010
     23 C         -14.1741   -2.0881   54.6316 C.3     1  UNL        -0.0289
     24 C         -11.4939   -3.0484   52.0613 C.3     1  UNL         0.0222
     25 C         -10.1732   -2.4777   52.6180 C.3     1  UNL         0.0661
     26 O          -9.9469   -1.2029   51.9906 O.3     1  UNL        -0.3432
     27 C          -8.7214   -0.5656   51.9741 C.ar    1  UNL         0.0937
     28 C          -7.5180   -1.2631   51.7382 C.ar    1  UNL        -0.0289
     29 C          -6.2925   -0.5765   51.7297 C.ar    1  UNL        -0.0417
     30 C          -6.2562    0.8103   51.9560 C.ar    1  UNL         0.0537
     31 C          -7.4525    1.5090   52.1909 C.ar    1  UNL        -0.0230
     32 C          -8.6796    0.8250   52.1999 C.ar    1  UNL         0.0721
     33 CL        -10.1508    1.7319   52.4970 Cl      1  UNL        -0.0814
     34 C          -5.0035    1.5094   51.9470 C.1     1  UNL         0.0992
     35 N          -3.9884    2.0634   51.9391 N.1     1  UNL        -0.1924
     36 C         -14.8883   -1.4154   57.9055 C.3     1  UNL         0.0037
     37 O         -10.1347   -1.0239   60.3548 O.3     1  UNL        -0.3490
     38 C          -8.9973   -1.0146   61.2338 C.3     1  UNL         0.0422
     39 H          -8.2858    1.6273   57.0868 H       1  UNL         0.0624
     40 H          -8.1460    0.4272   59.2373 H       1  UNL         0.0651
     41 H         -12.3374    0.2972   56.5659 H       1  UNL         0.0627
     42 H         -10.3845    1.5632   55.7512 H       1  UNL         0.0623
     43 H         -12.1325   -2.0537   59.4118 H       1  UNL         0.0627
     44 H         -14.9878   -0.8100   62.9966 H       1  UNL         0.0627
     45 H         -15.1674    1.6651   62.6875 H       1  UNL         0.0639
     46 H         -14.1350    2.7089   60.6441 H       1  UNL         0.0840
     47 H         -14.0903   -3.1474   60.4434 H       1  UNL         0.0280
     48 H         -14.3665   -2.9609   62.1776 H       1  UNL         0.0280
     49 H         -12.7181   -2.8883   61.5369 H       1  UNL         0.0280
     50 H         -14.8222   -3.3140   56.2526 H       1  UNL         0.0402
     51 H         -14.1617   -4.9035   54.5888 H       1  UNL         0.0288
     52 H         -13.0436   -5.1284   55.9244 H       1  UNL         0.0288
     53 H         -11.8779   -5.1511   53.7491 H       1  UNL         0.0431
     54 H         -11.3098   -3.7887   54.7308 H       1  UNL         0.0431
     55 H         -13.3720   -1.3113   52.7802 H       1  UNL         0.0431
     56 H         -12.1854   -1.3992   54.0845 H       1  UNL         0.0431
     57 H         -15.0655   -2.4291   54.0893 H       1  UNL         0.0288
     58 H         -14.4266   -1.1098   55.0604 H       1  UNL         0.0288
     59 H         -11.8654   -2.3850   51.2692 H       1  UNL         0.0455
     60 H         -11.2684   -4.0185   51.5994 H       1  UNL         0.0455
     61 H          -9.3515   -3.1672   52.3856 H       1  UNL         0.0586
     62 H         -10.2428   -2.3523   53.7052 H       1  UNL         0.0586
     63 H          -7.5190   -2.3337   51.5603 H       1  UNL         0.0651
     64 H          -5.3714   -1.1240   51.5468 H       1  UNL         0.0638
     65 H          -7.4328    2.5814   52.3666 H       1  UNL         0.0653
     66 H         -15.0410   -0.4498   58.4009 H       1  UNL         0.0433
     67 H         -15.4354   -2.1894   58.4576 H       1  UNL         0.0433
     68 H         -15.2994   -1.3271   56.8932 H       1  UNL         0.0433
     69 H          -9.2128   -1.6164   62.1252 H       1  UNL         0.0535
     70 H          -8.7679    0.0099   61.5532 H       1  UNL         0.0535
     71 H          -8.1200   -1.4409   60.7310 H       1  UNL         0.0535
@<TRIPOS>BOND
     1     1     2   ar
     2     1     6   ar
     3     1    39    1
     4     2     3   ar
     5     2    40    1
     6     3     4   ar
     7     3    37    1
     8     4     5   ar
     9     4     7    1
    10     5     6   ar
    11     5    41    1
    12     6    42    1
    13     7     8    1
    14     7    15    1
    15     7    43    1
    16     8     9   ar
    17     8    13   ar
    18     9    10   ar
    19     9    14    1
    20    10    11   ar
    21    10    44    1
    22    11    12   ar
    23    11    45    1
    24    12    13   ar
    25    12    46    1
    26    14    47    1
    27    14    48    1
    28    14    49    1
    29    15    16   am
    30    15    36    1
    31    16    17    2
    32    16    18    1
    33    18    19    1
    34    18    23    1
    35    18    50    1
    36    19    20    1
    37    19    51    1
    38    19    52    1
    39    20    21    1
    40    20    53    1
    41    20    54    1
    42    21    22    1
    43    21    24    1
    44    22    23    1
    45    22    55    1
    46    22    56    1
    47    23    57    1
    48    23    58    1
    49    24    25    1
    50    24    59    1
    51    24    60    1
    52    25    26    1
    53    25    61    1
    54    25    62    1
    55    26    27    1
    56    27    28   ar
    57    27    32   ar
    58    28    29   ar
    59    28    63    1
    60    29    30   ar
    61    29    64    1
    62    30    31   ar
    63    30    34    1
    64    31    32   ar
    65    31    65    1
    66    32    33    1
    67    34    35    3
    68    36    66    1
    69    36    67    1
    70    36    68    1
    71    37    38    1
    72    38    69    1
    73    38    70    1
    74    38    71    1
@<TRIPOS>SUBSTRUCTURE
     1 UNL         1 TEMP              0 ****  ****    0 ROOT


##########                                Name:    ZINC000824084043
##########                DOCK_Rotatable_Bonds:                  11
##########                         Heavy_Atoms:                  27
##########                    Molecular_Weight:             382.547
##########                DOCK_Rotatable_Bonds:                  11
##########                       Formal_Charge:        -6.85453e-07
##########                     HBond_Acceptors:                   7
##########                        HBond_Donors:                   3
##########                         Heavy_Atoms:                  27
##########                          Grid_Score:          -39.036827
##########                     Grid_vdw_energy:          -32.794960
##########                      Grid_es_energy:           -6.241866
##########           Internal_energy_repulsive:           17.672804

@<TRIPOS>MOLECULE
ZINC000824084043
 65 66 1 0 0
SMALL
USER_CHARGES


@<TRIPOS>ATOM
      1 C1        -13.3952   -5.0006   55.6229 C.3     1  ZINC000824084043   -0.1400
      2 C2        -13.0270   -3.5159   55.5922 C.3     1  ZINC000824084043   -0.1000
      3 C3        -13.7742   -2.7819   56.7074 C.3     1  ZINC000824084043   -0.1300
      4 C4        -11.5192   -3.3600   55.8000 C.3     1  ZINC000824084043    0.1700
      5 H5        -11.0068   -4.2444   55.4213 H       1  ZINC000824084043    0.0700
      6 C6        -11.0257   -2.1231   55.0470 C.3     1  ZINC000824084043   -0.1400
      7 C7        -10.6294   -2.5174   53.6227 C.3     1  ZINC000824084043    0.1300
      8 N8        -11.0823   -1.4855   52.6864 N.am    1  ZINC000824084043   -0.6200
      9 C9        -12.3324   -1.6672   51.9446 C.3     1  ZINC000824084043    0.0800
     10 C10       -10.3487   -0.3692   52.5077 C.2     1  ZINC000824084043    0.7000
     11 O11       -10.7236    0.4867   51.7296 O.2     1  ZINC000824084043   -0.5800
     12 N12        -9.1994   -0.2013   53.1914 N.am    1  ZINC000824084043   -0.7500
     13 C13        -8.4010    1.0113   52.9958 C.3     1  ZINC000824084043    0.1600
     14 C14        -8.1379    1.6752   54.3506 C.3     1  ZINC000824084043   -0.1600
     15 C15        -7.2377    2.8959   54.1479 C.3     1  ZINC000824084043   -0.0100
     16 N16        -5.9641    2.4756   53.5517 N.4     1  ZINC000824084043   -0.3800
     17 H17        -5.5299    1.7823   54.1423 H       1  ZINC000824084043    0.4200
     18 C18        -5.0749    3.6386   53.4294 C.3     1  ZINC000824084043    0.0000
     19 C19        -3.6215    3.1886   53.5907 C.3     1  ZINC000824084043   -0.1200
     20 C20        -2.6909    4.0236   52.6766 C.3     1  ZINC000824084043   -0.1400
     21 C21        -1.3159    3.8926   53.3776 C.3     1  ZINC000824084043   -0.1200
     22 C22        -1.6527    3.9364   54.8824 C.3     1  ZINC000824084043   -0.1300
     23 C23        -3.1187    3.4888   55.0179 C.3     1  ZINC000824084043   -0.1100
     24 C24        -6.2018    1.9031   52.2211 C.3     1  ZINC000824084043    0.0000
     25 C25        -7.0620    0.6442   52.3497 C.3     1  ZINC000824084043   -0.1600
     26 N26       -11.2366   -3.2066   57.2294 N.am    1  ZINC000824084043   -0.7800
     27 C27       -10.7489   -4.2460   57.9352 C.2     1  ZINC000824084043    0.6600
     28 O28       -10.5116   -4.1176   59.1281 O.co2   1  ZINC000824084043   -0.7200
     29 O29       -10.5437   -5.3179   57.3827 O.co2   1  ZINC000824084043   -0.7300
     30 H30       -14.4693   -5.1116   55.4748 H       1  ZINC000824084043    0.0500
     31 H31       -12.8629   -5.5236   54.8284 H       1  ZINC000824084043    0.0500
     32 H32       -13.1157   -5.4243   56.5875 H       1  ZINC000824084043    0.0500
     33 H33       -13.3064   -3.0922   54.6275 H       1  ZINC000824084043    0.0500
     34 H34       -13.4946   -3.2056   57.6720 H       1  ZINC000824084043    0.0600
     35 H35       -13.5118   -1.7241   56.6854 H       1  ZINC000824084043    0.0700
     36 H36       -14.8483   -2.8929   56.5593 H       1  ZINC000824084043    0.0300
     37 H37       -11.8212   -1.3788   55.0099 H       1  ZINC000824084043    0.0700
     38 H38       -10.1608   -1.7051   55.5621 H       1  ZINC000824084043    0.0600
     39 H39        -9.5456   -2.6139   53.5607 H       1  ZINC000824084043    0.0900
     40 H40       -11.0944   -3.4695   53.3667 H       1  ZINC000824084043    0.0900
     41 H41       -13.1597   -1.2509   52.5194 H       1  ZINC000824084043    0.0600
     42 H42       -12.2630   -1.1555   50.9848 H       1  ZINC000824084043    0.0600
     43 H43       -12.5046   -2.7306   51.7779 H       1  ZINC000824084043    0.0800
     44 H44        -8.9009   -0.8836   53.8131 H       1  ZINC000824084043    0.4000
     45 H45        -8.9408    1.7025   52.3486 H       1  ZINC000824084043    0.1100
     46 H46        -9.0838    1.9896   54.7916 H       1  ZINC000824084043    0.1200
     47 H47        -7.6443    0.9651   55.0140 H       1  ZINC000824084043    0.0900
     48 H48        -7.7324    3.6054   53.4845 H       1  ZINC000824084043    0.1300
     49 H49        -7.0486    3.3711   55.1105 H       1  ZINC000824084043    0.1300
     50 H50        -5.2071    4.0955   52.4487 H       1  ZINC000824084043    0.1300
     51 H51        -5.3184    4.3652   54.2045 H       1  ZINC000824084043    0.1300
     52 H52        -3.5251    2.1259   53.3679 H       1  ZINC000824084043    0.1000
     53 H53        -2.6546    3.6007   51.6727 H       1  ZINC000824084043    0.0700
     54 H54        -3.0116    5.0650   52.6469 H       1  ZINC000824084043    0.0800
     55 H55        -0.8450    2.9441   53.1195 H       1  ZINC000824084043    0.0700
     56 H56        -0.6688    4.7269   53.1072 H       1  ZINC000824084043    0.0800
     57 H57        -1.0020    3.2550   55.4306 H       1  ZINC000824084043    0.0700
     58 H58        -1.5357    4.9514   55.2618 H       1  ZINC000824084043    0.0700
     59 H59        -3.7131    4.2866   55.4631 H       1  ZINC000824084043    0.0700
     60 H60        -3.1794    2.5902   55.6318 H       1  ZINC000824084043    0.0800
     61 H61        -6.7184    2.6338   51.5988 H       1  ZINC000824084043    0.1300
     62 H62        -5.2478    1.6454   51.7613 H       1  ZINC000824084043    0.1300
     63 H63        -6.5461   -0.0872   52.9716 H       1  ZINC000824084043    0.0900
     64 H64        -7.2389    0.2217   51.3605 H       1  ZINC000824084043    0.1200
     65 H65       -11.4006   -2.3570   57.6677 H       1  ZINC000824084043    0.3600
@<TRIPOS>BOND
     1     1     2    1
     2     1    30    1
     3     1    31    1
     4     1    32    1
     5     2     3    1
     6     2     4    1
     7     2    33    1
     8     3    34    1
     9     3    35    1
    10     3    36    1
    11     4     5    1
    12     4     6    1
    13     4    26    1
    14     6     7    1
    15     6    37    1
    16     6    38    1
    17     7     8    1
    18     7    39    1
    19     7    40    1
    20     8     9    1
    21     8    10   am
    22     9    41    1
    23     9    42    1
    24     9    43    1
    25    10    11    2
    26    10    12   am
    27    12    13    1
    28    12    44    1
    29    13    25    1
    30    13    14    1
    31    13    45    1
    32    14    15    1
    33    14    46    1
    34    14    47    1
    35    15    16    1
    36    15    48    1
    37    15    49    1
    38    16    17    1
    39    16    18    1
    40    16    24    1
    41    18    19    1
    42    18    50    1
    43    18    51    1
    44    19    23    1
    45    19    20    1
    46    19    52    1
    47    20    21    1
    48    20    53    1
    49    20    54    1
    50    21    22    1
    51    21    55    1
    52    21    56    1
    53    22    23    1
    54    22    57    1
    55    22    58    1
    56    23    59    1
    57    23    60    1
    58    24    25    1
    59    24    61    1
    60    24    62    1
    61    25    63    1
    62    25    64    1
    63    26    27   am
    64    26    65    1
    65    27    28   ar
    66    27    29   ar
@<TRIPOS>SUBSTRUCTURE
     1 ZINC000824084043        1 TEMP              0 ****  ****    0 ROOT


##########                                Name:    ZINC000058043838
##########                DOCK_Rotatable_Bonds:                   8
##########                         Heavy_Atoms:                  29
##########                    Molecular_Weight:             412.469
##########                DOCK_Rotatable_Bonds:                   8
##########                       Formal_Charge:           0.0200001
##########                     HBond_Acceptors:                   9
##########                        HBond_Donors:                   0
##########                         Heavy_Atoms:                  29
##########                          Grid_Score:          -38.931477
##########                     Grid_vdw_energy:          -38.718822
##########                      Grid_es_energy:           -0.212655
##########           Internal_energy_repulsive:           12.169477

@<TRIPOS>MOLECULE
ZINC000058043838
 49 51 1 0 0
SMALL
USER_CHARGES


@<TRIPOS>ATOM
      1 C1         -0.8589    2.3136   45.7683 C.3     1  ZINC000058043838    0.0300
      2 O2         -1.8492    1.6789   46.5799 O.3     1  ZINC000058043838   -0.3800
      3 C3         -1.3597    1.2196   47.8415 C.3     1  ZINC000058043838    0.0300
      4 C4         -0.8553    2.4115   48.6574 C.3     1  ZINC000058043838    0.1000
      5 N5         -0.7035    2.0144   50.0594 N.am    1  ZINC000058043838   -0.5200
      6 C6          0.4386    1.4318   50.4748 C.2     1  ZINC000058043838    0.5100
      7 O7          0.5649    1.1044   51.6358 O.2     1  ZINC000058043838   -0.4500
      8 C8          1.5588    1.1872   49.4968 C.3     1  ZINC000058043838   -0.0900
      9 C9          2.7608    0.6542   50.2330 C.ar    1  ZINC000058043838   -0.1400
     10 C10         2.9319   -0.7112   50.4016 C.ar    1  ZINC000058043838   -0.0500
     11 C11         4.0533   -1.1563   51.0854 C.ar    1  ZINC000058043838   -0.1700
     12 C12         4.9565   -0.2307   51.5724 C.ar    1  ZINC000058043838    0.1300
     13 C13         6.1789   -0.7031   52.3165 C.3     1  ZINC000058043838   -0.1100
     14 N14         4.7614    1.0612   51.3932 N.ar    1  ZINC000058043838   -0.4800
     15 C15         3.7096    1.5201   50.7437 C.ar    1  ZINC000058043838    0.1200
     16 C16        -1.7370    2.2385   50.9607 C.2     1  ZINC000058043838    0.3100
     17 N17        -2.8692    1.6067   50.9748 N.2     1  ZINC000058043838   -0.4700
     18 C18        -3.7406    1.9538   51.9116 C.2     1  ZINC000058043838    0.1100
     19 C19        -5.0701    1.3082   52.0359 C.ar    1  ZINC000058043838    0.0400
     20 C20        -6.1733    2.0528   52.4499 C.ar    1  ZINC000058043838   -0.0800
     21 C21        -7.4080    1.4469   52.5633 C.ar    1  ZINC000058043838   -0.0500
     22 C22        -7.5520    0.1034   52.2669 C.ar    1  ZINC000058043838   -0.0400
     23 N23        -8.8791   -0.5408   52.3904 N.pl3   1  ZINC000058043838    0.0300
     24 O24        -9.8416    0.1118   52.7524 O.2     1  ZINC000058043838   -0.1600
     25 O25        -9.0085   -1.7236   52.1300 O.2     1  ZINC000058043838   -0.1600
     26 C26        -6.4607   -0.6404   51.8551 C.ar    1  ZINC000058043838   -0.0500
     27 C27        -5.2221   -0.0439   51.7335 C.ar    1  ZINC000058043838   -0.1100
     28 C28        -3.3356    2.9316   52.7418 C.2     1  ZINC000058043838   -0.2600
     29 S29        -1.7103    3.4195   52.2668 S.3     1  ZINC000058043838    0.1500
     30 H30        -0.4600    3.1813   46.2938 H       1  ZINC000058043838    0.0500
     31 H31        -0.0518    1.6102   45.5634 H       1  ZINC000058043838    0.0400
     32 H32        -1.3096    2.6333   44.8287 H       1  ZINC000058043838    0.0900
     33 H33        -2.1636    0.7221   48.3839 H       1  ZINC000058043838    0.0600
     34 H34        -0.5416    0.5176   47.6800 H       1  ZINC000058043838    0.0800
     35 H35         0.1080    2.7382   48.2660 H       1  ZINC000058043838    0.1200
     36 H36        -1.5724    3.2295   48.5871 H       1  ZINC000058043838    0.1000
     37 H37         1.2376    0.4601   48.7510 H       1  ZINC000058043838    0.1100
     38 H38         1.8206    2.1229   49.0029 H       1  ZINC000058043838    0.1100
     39 H39         2.2090   -1.4114   50.0102 H       1  ZINC000058043838    0.1300
     40 H40         4.2185   -2.2130   51.2357 H       1  ZINC000058043838    0.1400
     41 H41         6.9951   -0.8606   51.6114 H       1  ZINC000058043838    0.0800
     42 H42         6.4716    0.0490   53.0490 H       1  ZINC000058043838    0.0800
     43 H43         5.9541   -1.6395   52.8271 H       1  ZINC000058043838    0.0800
     44 H44         3.5835    2.5852   50.6167 H       1  ZINC000058043838    0.1500
     45 H45        -6.0620    3.1016   52.6819 H       1  ZINC000058043838    0.1600
     46 H46        -8.2634    2.0227   52.8843 H       1  ZINC000058043838    0.1600
     47 H47        -6.5789   -1.6889   51.6250 H       1  ZINC000058043838    0.1600
     48 H48        -4.3709   -0.6254   51.4115 H       1  ZINC000058043838    0.1500
     49 H49        -3.9066    3.3439   53.5606 H       1  ZINC000058043838    0.1800
@<TRIPOS>BOND
     1     1     2    1
     2     1    30    1
     3     1    31    1
     4     1    32    1
     5     2     3    1
     6     3     4    1
     7     3    33    1
     8     3    34    1
     9     4     5    1
    10     4    35    1
    11     4    36    1
    12     5     6   am
    13     5    16    1
    14     6     7    2
    15     6     8    1
    16     8     9    1
    17     8    37    1
    18     8    38    1
    19     9    15   ar
    20     9    10   ar
    21    10    11   ar
    22    10    39    1
    23    11    12   ar
    24    11    40    1
    25    12    13    1
    26    12    14   ar
    27    13    41    1
    28    13    42    1
    29    13    43    1
    30    14    15   ar
    31    15    44    1
    32    16    29    1
    33    16    17    2
    34    17    18    1
    35    18    19    1
    36    18    28    2
    37    19    27   ar
    38    19    20   ar
    39    20    21   ar
    40    20    45    1
    41    21    22   ar
    42    21    46    1
    43    22    23    1
    44    22    26   ar
    45    23    24    2
    46    23    25    2
    47    26    27   ar
    48    26    47    1
    49    27    48    1
    50    28    29    1
    51    28    49    1
@<TRIPOS>SUBSTRUCTURE
     1 ZINC000058043838        1 TEMP              0 ****  ****    0 ROOT


##########                                Name:    ZINC000428266315
##########                DOCK_Rotatable_Bonds:                  10
##########                         Heavy_Atoms:                  30
##########                    Molecular_Weight:             423.438
##########                DOCK_Rotatable_Bonds:                  10
##########                       Formal_Charge:          0.00999977
##########                     HBond_Acceptors:                  10
##########                        HBond_Donors:                   0
##########                         Heavy_Atoms:                  30
##########                          Grid_Score:          -38.716145
##########                     Grid_vdw_energy:          -38.089600
##########                      Grid_es_energy:           -0.626546
##########           Internal_energy_repulsive:           10.544208

@<TRIPOS>MOLECULE
ZINC000428266315
 54 56 1 0 0
SMALL
USER_CHARGES


@<TRIPOS>ATOM
      1 C1         -0.7752    0.8622   47.6640 C.3     1  ZINC000428266315   -0.1500
      2 C2         -0.6465    1.5845   49.0067 C.3     1  ZINC000428266315    0.0600
      3 O3         -1.9340    1.6857   49.6185 O.3     1  ZINC000428266315   -0.3700
      4 C4         -1.9023    2.1686   50.9630 C.3     1  ZINC000428266315    0.1800
      5 H5         -1.2066    1.5676   51.5487 H       1  ZINC000428266315    0.0900
      6 C6         -1.4454    3.6288   50.9697 C.3     1  ZINC000428266315   -0.1700
      7 C7         -3.2805    2.0707   51.5646 C.2     1  ZINC000428266315    0.1700
      8 N8         -4.1995    1.2094   51.2454 N.2     1  ZINC000428266315   -0.3500
      9 O9         -5.1965    1.3927   51.9116 O.3     1  ZINC000428266315    0.0800
     10 C10        -5.0021    2.4196   52.7445 C.2     1  ZINC000428266315    0.1900
     11 C11        -5.9926    2.9685   53.7388 C.3     1  ZINC000428266315    0.1500
     12 N12        -7.0379    1.9680   53.9921 N.3     1  ZINC000428266315   -0.5300
     13 C13        -7.5336    2.0623   55.3717 C.3     1  ZINC000428266315    0.0200
     14 C14        -8.1378    2.1000   53.0273 C.3     1  ZINC000428266315    0.1400
     15 C15        -8.6748    0.7334   52.6879 C.2     1  ZINC000428266315   -0.2300
     16 C16        -9.9519    0.4416   52.3487 C.2     1  ZINC000428266315    0.0800
     17 N17       -10.0241   -0.8867   52.1221 N.pl3   1  ZINC000428266315   -0.3700
     18 C18       -11.2237   -1.6301   51.7289 C.3     1  ZINC000428266315    0.1700
     19 C19       -11.8094   -2.3142   52.9372 C.ar    1  ZINC000428266315   -0.0800
     20 C20       -12.1051   -3.6637   52.8920 C.ar    1  ZINC000428266315   -0.1000
     21 C21       -12.6424   -4.2911   54.0004 C.ar    1  ZINC000428266315   -0.0700
     22 C22       -12.8835   -3.5690   55.1542 C.ar    1  ZINC000428266315   -0.1700
     23 C23       -13.4697   -4.2529   56.3625 C.3     1  ZINC000428266315    0.5100
     24 F24       -13.9084   -5.5329   56.0068 F       1  ZINC000428266315   -0.1700
     25 F25       -12.4939   -4.3549   57.3598 F       1  ZINC000428266315   -0.1800
     26 F26       -14.5508   -3.5060   56.8423 F       1  ZINC000428266315   -0.1800
     27 C27       -12.5865   -2.2197   55.2000 C.ar    1  ZINC000428266315   -0.0700
     28 C28       -12.0456   -1.5932   54.0928 C.ar    1  ZINC000428266315   -0.0800
     29 N29        -8.7492   -1.4293   52.3291 N.2     1  ZINC000428266315   -0.2900
     30 C30        -7.9402   -0.4565   52.6621 C.2     1  ZINC000428266315    0.0600
     31 N31        -3.7832    2.8550   52.5347 N.2     1  ZINC000428266315   -0.4600
     32 H32         0.2068    0.7851   47.1973 H       1  ZINC000428266315    0.0700
     33 H33        -1.1799   -0.1367   47.8262 H       1  ZINC000428266315    0.0600
     34 H34        -1.4443    1.4238   47.0120 H       1  ZINC000428266315    0.0600
     35 H35         0.0225    1.0229   49.6587 H       1  ZINC000428266315    0.0500
     36 H36        -0.2418    2.5836   48.8444 H       1  ZINC000428266315    0.0500
     37 H37        -2.1410    4.2298   50.3841 H       1  ZINC000428266315    0.0700
     38 H38        -1.4212    3.9972   51.9953 H       1  ZINC000428266315    0.0700
     39 H39        -0.4485    3.6996   50.5346 H       1  ZINC000428266315    0.0700
     40 H40        -5.4795    3.2021   54.6717 H       1  ZINC000428266315    0.0800
     41 H41        -6.4465    3.8745   53.3371 H       1  ZINC000428266315    0.1200
     42 H42        -7.9515    3.0548   55.5406 H       1  ZINC000428266315    0.0400
     43 H43        -8.3065    1.3106   55.5323 H       1  ZINC000428266315    0.0800
     44 H44        -6.7109    1.8916   56.0659 H       1  ZINC000428266315    0.0600
     45 H45        -8.9329    2.7048   53.4633 H       1  ZINC000428266315    0.0500
     46 H46        -7.7703    2.5813   52.1210 H       1  ZINC000428266315    0.0900
     47 H47       -10.7674    1.1457   52.2729 H       1  ZINC000428266315    0.1700
     48 H48       -11.9571   -0.9411   51.3102 H       1  ZINC000428266315    0.1000
     49 H49       -10.9589   -2.3776   50.9810 H       1  ZINC000428266315    0.1100
     50 H50       -11.9168   -4.2278   51.9905 H       1  ZINC000428266315    0.1300
     51 H51       -12.8740   -5.3454   53.9648 H       1  ZINC000428266315    0.1400
     52 H52       -12.7745   -1.6556   56.1016 H       1  ZINC000428266315    0.1400
     53 H53       -11.8135   -0.5390   54.1285 H       1  ZINC000428266315    0.1400
     54 H54        -6.8884   -0.5563   52.8862 H       1  ZINC000428266315    0.1800
@<TRIPOS>BOND
     1     1     2    1
     2     1    32    1
     3     1    33    1
     4     1    34    1
     5     2     3    1
     6     2    35    1
     7     2    36    1
     8     3     4    1
     9     4     5    1
    10     4     6    1
    11     4     7    1
    12     6    37    1
    13     6    38    1
    14     6    39    1
    15     7    31    1
    16     7     8    2
    17     8     9    1
    18     9    10    1
    19    10    11    1
    20    10    31    2
    21    11    12    1
    22    11    40    1
    23    11    41    1
    24    12    13    1
    25    12    14    1
    26    13    42    1
    27    13    43    1
    28    13    44    1
    29    14    15    1
    30    14    45    1
    31    14    46    1
    32    15    30    1
    33    15    16    2
    34    16    17    1
    35    16    47    1
    36    17    18    1
    37    17    29    1
    38    18    19    1
    39    18    48    1
    40    18    49    1
    41    19    28   ar
    42    19    20   ar
    43    20    21   ar
    44    20    50    1
    45    21    22   ar
    46    21    51    1
    47    22    23    1
    48    22    27   ar
    49    23    24    1
    50    23    25    1
    51    23    26    1
    52    27    28   ar
    53    27    52    1
    54    28    53    1
    55    29    30    2
    56    30    54    1
@<TRIPOS>SUBSTRUCTURE
     1 ZINC000428266315        1 TEMP              0 ****  ****    0 ROOT


##########                                Name:    ZINC000474251633
##########                DOCK_Rotatable_Bonds:                   8
##########                         Heavy_Atoms:                  28
##########                    Molecular_Weight:             416.931
##########                DOCK_Rotatable_Bonds:                   8
##########                       Formal_Charge:          0.00999953
##########                     HBond_Acceptors:                   8
##########                        HBond_Donors:                   2
##########                         Heavy_Atoms:                  28
##########                          Grid_Score:          -38.694931
##########                     Grid_vdw_energy:          -38.500118
##########                      Grid_es_energy:           -0.194813
##########           Internal_energy_repulsive:            7.542164

@<TRIPOS>MOLECULE
ZINC000474251633
 49 52 1 0 0
SMALL
USER_CHARGES


@<TRIPOS>ATOM
      1 O1         -3.6865    2.7373   52.6741 O.2     1  ZINC000474251633   -0.5300
      2 C2         -3.7749    1.8431   51.8596 C.2     1  ZINC000474251633    0.5100
      3 C3         -2.5376    1.3238   51.1736 C.3     1  ZINC000474251633    0.1000
      4 N4         -2.1055    2.2828   50.1539 N.am    1  ZINC000474251633   -0.7100
      5 C5         -0.8725    2.1872   49.6184 C.2     1  ZINC000474251633    0.5900
      6 O6         -0.1187    1.3035   49.9806 O.2     1  ZINC000474251633   -0.5000
      7 C7         -0.4388    3.1495   48.5977 C.2     1  ZINC000474251633   -0.2300
      8 C8         -0.5159    2.9450   47.2774 C.2     1  ZINC000474251633    0.0400
      9 Cl9        -1.1555    1.4787   46.6031 Cl      1  ZINC000474251633   -0.0100
     10 C10        -0.0448    3.9970   46.4731 C.ar    1  ZINC000474251633   -0.0900
     11 C11         0.0059    4.0810   45.0616 C.ar    1  ZINC000474251633   -0.0600
     12 C12         0.5010    5.1918   44.4538 C.ar    1  ZINC000474251633   -0.1200
     13 C13         0.9657    6.2638   45.2054 C.ar    1  ZINC000474251633   -0.0800
     14 C14         0.9299    6.2121   46.5782 C.ar    1  ZINC000474251633   -0.0900
     15 C15         0.4248    5.0804   47.2264 C.ar    1  ZINC000474251633   -0.1200
     16 S16         0.2448    4.7287   48.9414 S.3     1  ZINC000474251633    0.1700
     17 N17        -4.9789    1.3100   51.5719 N.am    1  ZINC000474251633   -0.7200
     18 C18        -6.1816    1.8150   52.2387 C.3     1  ZINC000474251633    0.2100
     19 C19        -7.2420    0.7441   52.2407 C.2     1  ZINC000474251633    0.0500
     20 N20        -8.5339    0.9438   52.2935 N.2     1  ZINC000474251633   -0.2700
     21 N21        -9.1707   -0.3039   52.2739 N.pl3   1  ZINC000474251633   -0.3600
     22 C22       -10.6169   -0.5341   52.3176 C.3     1  ZINC000474251633    0.1500
     23 C23       -10.9604   -1.8697   51.6263 C.3     1  ZINC000474251633   -0.1400
     24 C24       -11.0359   -2.8907   52.7886 C.3     1  ZINC000474251633   -0.1300
     25 C25       -11.6990   -2.0696   53.9222 C.3     1  ZINC000474251633   -0.1200
     26 C26       -11.0865   -0.6612   53.7774 C.3     1  ZINC000474251633   -0.1400
     27 C27        -8.2169   -1.2560   52.2076 C.2     1  ZINC000474251633    0.0600
     28 C28        -7.0150   -0.6348   52.1802 C.2     1  ZINC000474251633   -0.2600
     29 H29        -1.7431    1.1918   51.9082 H       1  ZINC000474251633    0.1100
     30 H30        -2.7586    0.3665   50.7016 H       1  ZINC000474251633    0.1100
     31 H31        -2.7069    2.9866   49.8643 H       1  ZINC000474251633    0.4100
     32 H32        -0.3509    3.2563   44.4625 H       1  ZINC000474251633    0.1300
     33 H33         0.5338    5.2413   43.3754 H       1  ZINC000474251633    0.1400
     34 H34         1.3564    7.1401   44.7094 H       1  ZINC000474251633    0.1400
     35 H35         1.2929    7.0477   47.1582 H       1  ZINC000474251633    0.1400
     36 H36        -5.0490    0.5922   50.9233 H       1  ZINC000474251633    0.4100
     37 H37        -5.9399    2.0888   53.2657 H       1  ZINC000474251633    0.0900
     38 H38        -6.5515    2.6913   51.7064 H       1  ZINC000474251633    0.0900
     39 H39       -11.1404    0.2866   51.8271 H       1  ZINC000474251633    0.1100
     40 H40       -11.9218   -1.7994   51.1171 H       1  ZINC000474251633    0.0900
     41 H41       -10.1751   -2.1487   50.9237 H       1  ZINC000474251633    0.0800
     42 H42       -11.6576   -3.7429   52.5143 H       1  ZINC000474251633    0.0800
     43 H43       -10.0380   -3.2173   53.0811 H       1  ZINC000474251633    0.0700
     44 H44       -12.7795   -2.0318   53.7839 H       1  ZINC000474251633    0.0700
     45 H45       -11.4527   -2.4946   54.8952 H       1  ZINC000474251633    0.0700
     46 H46       -10.2384   -0.5516   54.4533 H       1  ZINC000474251633    0.0700
     47 H47       -11.8384    0.0972   53.9951 H       1  ZINC000474251633    0.0800
     48 H48        -8.3831   -2.3228   52.1773 H       1  ZINC000474251633    0.1700
     49 H49        -6.0508   -1.1184   52.1274 H       1  ZINC000474251633    0.1500
@<TRIPOS>BOND
     1     1     2    2
     2     2     3    1
     3     2    17   am
     4     3     4    1
     5     3    29    1
     6     3    30    1
     7     4     5   am
     8     4    31    1
     9     5     6    2
    10     5     7    1
    11     7    16    1
    12     7     8    2
    13     8     9    1
    14     8    10    1
    15    10    15   ar
    16    10    11   ar
    17    11    12   ar
    18    11    32    1
    19    12    13   ar
    20    12    33    1
    21    13    14   ar
    22    13    34    1
    23    14    15   ar
    24    14    35    1
    25    15    16    1
    26    17    18    1
    27    17    36    1
    28    18    19    1
    29    18    37    1
    30    18    38    1
    31    19    28    1
    32    19    20    2
    33    20    21    1
    34    21    22    1
    35    21    27    1
    36    22    26    1
    37    22    23    1
    38    22    39    1
    39    23    24    1
    40    23    40    1
    41    23    41    1
    42    24    25    1
    43    24    42    1
    44    24    43    1
    45    25    26    1
    46    25    44    1
    47    25    45    1
    48    26    46    1
    49    26    47    1
    50    27    28    2
    51    27    48    1
    52    28    49    1
@<TRIPOS>SUBSTRUCTURE
     1 ZINC000474251633        1 TEMP              0 ****  ****    0 ROOT


##########                                Name:    ZINC001169875900
##########                DOCK_Rotatable_Bonds:                   9
##########                         Heavy_Atoms:                  24
##########                    Molecular_Weight:             329.399
##########                DOCK_Rotatable_Bonds:                   9
##########                       Formal_Charge:          -0.0500002
##########                     HBond_Acceptors:                   6
##########                        HBond_Donors:                   1
##########                         Heavy_Atoms:                  24
##########                          Grid_Score:          -38.513252
##########                     Grid_vdw_energy:          -37.200008
##########                      Grid_es_energy:           -1.313244
##########           Internal_energy_repulsive:            9.020085

@<TRIPOS>MOLECULE
ZINC001169875900
 47 48 1 0 0
SMALL
USER_CHARGES


@<TRIPOS>ATOM
      1 C1        -11.9562   -3.4804   53.4941 C.3     1  ZINC001169875900   -0.1500
      2 C2        -11.9057   -2.6918   52.1840 C.3     1  ZINC001169875900   -0.1300
      3 C3        -10.4537   -2.3355   51.8588 C.3     1  ZINC001169875900    0.0700
      4 O4        -10.0359   -1.2431   52.6797 O.3     1  ZINC001169875900   -0.3100
      5 C5         -8.7671   -0.7917   52.5063 C.ar    1  ZINC001169875900    0.2700
      6 N6         -7.9418   -1.4520   51.7124 N.ar    1  ZINC001169875900   -0.5000
      7 C7         -6.6985   -1.0543   51.5186 C.ar    1  ZINC001169875900    0.0600
      8 C8         -6.2135    0.0848   52.1431 C.ar    1  ZINC001169875900    0.1400
      9 N9         -4.8934    0.5008   51.9335 N.pl3   1  ZINC001169875900   -0.7400
     10 C10        -4.5501    1.9220   52.0245 C.3     1  ZINC001169875900    0.1800
     11 C11        -3.0801    2.1026   51.7460 C.ar    1  ZINC001169875900    0.1000
     12 C12        -2.2525    2.6015   52.7393 C.ar    1  ZINC001169875900   -0.1200
     13 C13        -0.9009    2.7660   52.4788 C.ar    1  ZINC001169875900   -0.0800
     14 C14        -0.4230    2.4227   51.2241 C.ar    1  ZINC001169875900   -0.1000
     15 C15        -1.3128    1.9268   50.2733 C.ar    1  ZINC001169875900    0.0900
     16 C16        -0.8181    1.5554   48.9280 C.2     1  ZINC001169875900    0.5200
     17 O17         0.3718    1.5889   48.6880 O.2     1  ZINC001169875900   -0.5000
     18 O18        -1.6878    1.1802   47.9706 O.3     1  ZINC001169875900   -0.3300
     19 C19        -1.1497    0.9633   46.6396 C.3     1  ZINC001169875900    0.0600
     20 C20        -0.5825   -0.4545   46.5436 C.3     1  ZINC001169875900   -0.1500
     21 N21        -2.5993    1.7797   50.5653 N.ar    1  ZINC001169875900   -0.4200
     22 C22        -7.0571    0.8100   52.9828 C.ar    1  ZINC001169875900   -0.1200
     23 C23        -8.3536    0.3614   53.1608 C.ar    1  ZINC001169875900   -0.1000
     24 C24        -9.3037    1.1111   54.0587 C.3     1  ZINC001169875900   -0.1000
     25 H25       -11.5417   -2.8740   54.2995 H       1  ZINC001169875900    0.0600
     26 H26       -12.9906   -3.7341   53.7258 H       1  ZINC001169875900    0.0600
     27 H27       -11.3723   -4.3948   53.3905 H       1  ZINC001169875900    0.0600
     28 H28       -12.4897   -1.7772   52.2877 H       1  ZINC001169875900    0.0700
     29 H29       -12.3202   -3.2982   51.3787 H       1  ZINC001169875900    0.0700
     30 H30       -10.3755   -2.0519   50.8092 H       1  ZINC001169875900    0.0600
     31 H31        -9.8162   -3.1986   52.0504 H       1  ZINC001169875900    0.0600
     32 H32        -6.0515   -1.6224   50.8667 H       1  ZINC001169875900    0.1500
     33 H33        -4.2061   -0.1520   51.7280 H       1  ZINC001169875900    0.4000
     34 H34        -5.1303    2.4837   51.2923 H       1  ZINC001169875900    0.0800
     35 H35        -4.7777    2.2875   53.0259 H       1  ZINC001169875900    0.0800
     36 H36        -2.6567    2.8598   53.7069 H       1  ZINC001169875900    0.1500
     37 H37        -0.2355    3.1526   53.2366 H       1  ZINC001169875900    0.1500
     38 H38         0.6243    2.5381   50.9865 H       1  ZINC001169875900    0.1500
     39 H39        -1.9428    1.0879   45.9023 H       1  ZINC001169875900    0.0700
     40 H40        -0.3569    1.6857   46.4459 H       1  ZINC001169875900    0.0700
     41 H41         0.2106   -0.5791   47.2808 H       1  ZINC001169875900    0.0700
     42 H42        -1.3753   -1.1769   46.7372 H       1  ZINC001169875900    0.0700
     43 H43        -0.1785   -0.6173   45.5443 H       1  ZINC001169875900    0.0800
     44 H44        -6.7070    1.7009   53.4829 H       1  ZINC001169875900    0.1400
     45 H45        -9.8393    1.8606   53.4760 H       1  ZINC001169875900    0.0700
     46 H46        -8.7417    1.6021   54.8532 H       1  ZINC001169875900    0.0700
     47 H47       -10.0173    0.4130   54.4964 H       1  ZINC001169875900    0.0700
@<TRIPOS>BOND
     1     1     2    1
     2     1    25    1
     3     1    26    1
     4     1    27    1
     5     2     3    1
     6     2    28    1
     7     2    29    1
     8     3     4    1
     9     3    30    1
    10     3    31    1
    11     4     5    1
    12     5    23   ar
    13     5     6   ar
    14     6     7   ar
    15     7     8   ar
    16     7    32    1
    17     8     9    1
    18     8    22   ar
    19     9    10    1
    20     9    33    1
    21    10    11    1
    22    10    34    1
    23    10    35    1
    24    11    21   ar
    25    11    12   ar
    26    12    13   ar
    27    12    36    1
    28    13    14   ar
    29    13    37    1
    30    14    15   ar
    31    14    38    1
    32    15    16    1
    33    15    21   ar
    34    16    17    2
    35    16    18    1
    36    18    19    1
    37    19    20    1
    38    19    39    1
    39    19    40    1
    40    20    41    1
    41    20    42    1
    42    20    43    1
    43    22    23   ar
    44    22    44    1
    45    23    24    1
    46    24    45    1
    47    24    46    1
    48    24    47    1
@<TRIPOS>SUBSTRUCTURE
     1 ZINC001169875900        1 TEMP              0 ****  ****    0 ROOT


##########                                Name:    ZINC000467185792
##########                DOCK_Rotatable_Bonds:                   9
##########                         Heavy_Atoms:                  29
##########                    Molecular_Weight:             412.513
##########                DOCK_Rotatable_Bonds:                   9
##########                       Formal_Charge:                0.04
##########                     HBond_Acceptors:                   8
##########                        HBond_Donors:                   2
##########                         Heavy_Atoms:                  29
##########                          Grid_Score:          -38.361637
##########                     Grid_vdw_energy:          -37.405140
##########                      Grid_es_energy:           -0.956499
##########           Internal_energy_repulsive:           23.044390

@<TRIPOS>MOLECULE
ZINC000467185792
 53 55 1 0 0
SMALL
USER_CHARGES


@<TRIPOS>ATOM
      1 C1        -15.5489   -1.6215   61.2550 C.3     1  ZINC000467185792   -0.1500
      2 C2        -14.8816   -2.7497   60.4658 C.3     1  ZINC000467185792   -0.1200
      3 C3        -15.8205   -3.2172   59.3518 C.3     1  ZINC000467185792    0.0600
      4 O4        -15.2081   -4.2884   58.6311 O.3     1  ZINC000467185792   -0.3100
      5 C5        -14.4813   -3.9565   57.5316 C.ar    1  ZINC000467185792    0.1400
      6 C6        -14.1503   -4.9310   56.6002 C.ar    1  ZINC000467185792   -0.2100
      7 C7        -13.4132   -4.5973   55.4831 C.ar    1  ZINC000467185792   -0.0400
      8 C8        -13.0006   -3.2799   55.2902 C.ar    1  ZINC000467185792   -0.0600
      9 C9        -12.2081   -2.9175   54.0896 C.2     1  ZINC000467185792    0.1400
     10 C10       -12.6332   -3.1815   52.8413 C.2     1  ZINC000467185792   -0.3000
     11 S11       -11.4153   -2.5976   51.7095 S.3     1  ZINC000467185792    0.2000
     12 C12       -10.4283   -2.0414   53.0578 C.2     1  ZINC000467185792    0.2800
     13 N13        -9.1958   -1.4128   52.9444 N.am    1  ZINC000467185792   -0.6100
     14 C14        -9.1190   -0.1668   52.4363 C.2     1  ZINC000467185792    0.5900
     15 O15       -10.1295    0.4067   52.0771 O.2     1  ZINC000467185792   -0.4900
     16 C16        -7.8107    0.5005   52.3159 C.2     1  ZINC000467185792   -0.2400
     17 C17        -7.4839    1.6009   53.1058 C.2     1  ZINC000467185792    0.0800
     18 C18        -8.4599    2.1490   54.1148 C.3     1  ZINC000467185792   -0.1200
     19 C19        -8.2575    1.4419   55.4564 C.3     1  ZINC000467185792   -0.1400
     20 C20        -6.2215    2.1819   52.9344 C.2     1  ZINC000467185792    0.0600
     21 C21        -5.8283    3.3735   53.7692 C.3     1  ZINC000467185792   -0.0600
     22 C22        -4.3734    3.7444   53.4750 C.3     1  ZINC000467185792   -0.1500
     23 N23        -5.3820    1.7005   52.0584 N.2     1  ZINC000467185792   -0.1800
     24 N24        -5.6505    0.6898   51.3158 N.am    1  ZINC000467185792   -0.4300
     25 C25        -6.8290    0.0425   51.3923 C.2     1  ZINC000467185792    0.5000
     26 O26        -7.0561   -0.9154   50.6733 O.2     1  ZINC000467185792   -0.5300
     27 N27       -11.0350   -2.3062   54.1732 N.2     1  ZINC000467185792   -0.5000
     28 C28       -13.3346   -2.3036   56.2274 C.ar    1  ZINC000467185792   -0.0600
     29 C29       -14.0764   -2.6427   57.3397 C.ar    1  ZINC000467185792   -0.1500
     30 H30       -16.4790   -1.9847   61.6922 H       1  ZINC000467185792    0.0600
     31 H31       -14.8801   -1.2885   62.0486 H       1  ZINC000467185792    0.0700
     32 H32       -15.7630   -0.7877   60.5865 H       1  ZINC000467185792    0.0600
     33 H33       -13.9516   -2.3865   60.0285 H       1  ZINC000467185792    0.0700
     34 H34       -14.6676   -3.5835   61.1344 H       1  ZINC000467185792    0.0700
     35 H35       -16.7583   -3.5617   59.7876 H       1  ZINC000467185792    0.0600
     36 H36       -16.0186   -2.3885   58.6719 H       1  ZINC000467185792    0.0600
     37 H37       -14.4700   -5.9516   56.7504 H       1  ZINC000467185792    0.1300
     38 H38       -13.1557   -5.3561   54.7589 H       1  ZINC000467185792    0.1300
     39 H39       -13.5609   -3.6677   52.5778 H       1  ZINC000467185792    0.1800
     40 H40        -8.3898   -1.8702   53.2309 H       1  ZINC000467185792    0.4400
     41 H41        -8.2917    3.2188   54.2390 H       1  ZINC000467185792    0.0900
     42 H42        -9.4781    1.9795   53.7647 H       1  ZINC000467185792    0.1300
     43 H43        -8.4257    0.3721   55.3322 H       1  ZINC000467185792    0.0600
     44 H44        -7.2393    1.6114   55.8065 H       1  ZINC000467185792    0.0600
     45 H45        -8.9635    1.8384   56.1862 H       1  ZINC000467185792    0.0700
     46 H46        -6.4747    4.2167   53.5258 H       1  ZINC000467185792    0.1000
     47 H47        -5.9341    3.1276   54.8258 H       1  ZINC000467185792    0.1000
     48 H48        -4.0891    4.6063   54.0788 H       1  ZINC000467185792    0.0600
     49 H49        -3.7271    2.9012   53.7184 H       1  ZINC000467185792    0.0600
     50 H50        -4.2677    3.9903   52.4184 H       1  ZINC000467185792    0.0600
     51 H51        -4.9834    0.3799   50.6834 H       1  ZINC000467185792    0.4500
     52 H52       -13.0161   -1.2822   56.0809 H       1  ZINC000467185792    0.1300
     53 H53       -14.3358   -1.8868   58.0660 H       1  ZINC000467185792    0.1400
@<TRIPOS>BOND
     1     1     2    1
     2     1    30    1
     3     1    31    1
     4     1    32    1
     5     2     3    1
     6     2    33    1
     7     2    34    1
     8     3     4    1
     9     3    35    1
    10     3    36    1
    11     4     5    1
    12     5    29   ar
    13     5     6   ar
    14     6     7   ar
    15     6    37    1
    16     7     8   ar
    17     7    38    1
    18     8     9    1
    19     8    28   ar
    20     9    27    1
    21     9    10    2
    22    10    11    1
    23    10    39    1
    24    11    12    1
    25    12    13    1
    26    12    27    2
    27    13    14   am
    28    13    40    1
    29    14    15    2
    30    14    16    1
    31    16    25    1
    32    16    17    2
    33    17    18    1
    34    17    20    1
    35    18    19    1
    36    18    41    1
    37    18    42    1
    38    19    43    1
    39    19    44    1
    40    19    45    1
    41    20    21    1
    42    20    23    2
    43    21    22    1
    44    21    46    1
    45    21    47    1
    46    22    48    1
    47    22    49    1
    48    22    50    1
    49    23    24    1
    50    24    25   am
    51    24    51    1
    52    25    26    2
    53    28    29   ar
    54    28    52    1
    55    29    53    1
@<TRIPOS>SUBSTRUCTURE
     1 ZINC000467185792        1 TEMP              0 ****  ****    0 ROOT


##########                                Name:    ZINC000600609084
##########                DOCK_Rotatable_Bonds:                   8
##########                         Heavy_Atoms:                  30
##########                    Molecular_Weight:             422.548
##########                DOCK_Rotatable_Bonds:                   8
##########                       Formal_Charge:           0.0100005
##########                     HBond_Acceptors:                   6
##########                        HBond_Donors:                   2
##########                         Heavy_Atoms:                  30
##########                          Grid_Score:          -38.332172
##########                     Grid_vdw_energy:          -38.152840
##########                      Grid_es_energy:           -0.179333
##########           Internal_energy_repulsive:           18.561365

@<TRIPOS>MOLECULE
ZINC000600609084
 56 59 1 0 0
SMALL
USER_CHARGES


@<TRIPOS>ATOM
      1 O1        -10.7553   -4.6797   57.6586 O.2     1  ZINC000600609084   -0.5300
      2 C2        -11.4441   -3.7128   57.4104 C.2     1  ZINC000600609084    0.5200
      3 C3        -12.2803   -3.6853   56.1569 C.3     1  ZINC000600609084   -0.1500
      4 C4        -11.5386   -2.9108   55.0658 C.3     1  ZINC000600609084    0.1300
      5 N5        -12.4740   -2.5592   53.9947 N.am    1  ZINC000600609084   -1.1200
      6 S6        -11.9527   -2.5077   52.4237 S.o2    1  ZINC000600609084    2.7000
      7 O7        -11.3414   -3.7635   52.1623 O.2     1  ZINC000600609084   -0.9600
      8 O8        -13.0352   -1.9959   51.6583 O.2     1  ZINC000600609084   -0.9500
      9 C9        -10.6701   -1.3026   52.3390 C.ar    1  ZINC000600609084   -0.6700
     10 C10       -10.9862    0.0471   52.4790 C.ar    1  ZINC000600609084   -0.0400
     11 C11       -10.0193    1.0034   52.4186 C.ar    1  ZINC000600609084   -0.1200
     12 C12        -8.6814    0.6272   52.2124 C.ar    1  ZINC000600609084   -0.0100
     13 C13        -7.6556    1.5855   52.1449 C.ar    1  ZINC000600609084   -0.1200
     14 C14        -6.3709    1.1839   51.9443 C.ar    1  ZINC000600609084   -0.0900
     15 C15        -6.0546   -0.1664   51.8042 C.ar    1  ZINC000600609084   -0.1200
     16 C16        -7.0214   -1.1224   51.8640 C.ar    1  ZINC000600609084   -0.0900
     17 C17        -8.3597   -0.7460   52.0700 C.ar    1  ZINC000600609084   -0.0800
     18 C18        -9.3842   -1.7046   52.1435 C.ar    1  ZINC000600609084    0.0200
     19 N19       -11.4660   -2.6654   58.2583 N.am    1  ZINC000600609084   -0.7200
     20 C20       -10.6531   -2.6922   59.4767 C.3     1  ZINC000600609084    0.1400
     21 H21       -10.5221   -3.7199   59.8153 H       1  ZINC000600609084    0.1000
     22 C22        -9.2821   -2.0463   59.2099 C.3     1  ZINC000600609084   -0.1300
     23 C23        -9.1720   -0.8371   60.1614 C.3     1  ZINC000600609084   -0.1300
     24 C24       -10.6425   -0.4678   60.4781 C.3     1  ZINC000600609084   -0.1200
     25 C25       -11.3288   -1.8539   60.5813 C.3     1  ZINC000600609084   -0.0700
     26 H26       -11.1488   -2.2966   61.5610 H       1  ZINC000600609084    0.0900
     27 C27       -12.8085   -1.7302   60.3236 C.ar    1  ZINC000600609084   -0.0600
     28 C28       -13.7084   -2.4111   61.1221 C.ar    1  ZINC000600609084   -0.1100
     29 C29       -15.0656   -2.2978   60.8857 C.ar    1  ZINC000600609084   -0.1200
     30 C30       -15.5230   -1.5031   59.8510 C.ar    1  ZINC000600609084   -0.1200
     31 C31       -14.6230   -0.8216   59.0531 C.ar    1  ZINC000600609084   -0.1200
     32 C32       -13.2660   -0.9316   59.2923 C.ar    1  ZINC000600609084   -0.1100
     33 H33       -12.4619   -4.7055   55.8189 H       1  ZINC000600609084    0.1000
     34 H34       -13.2322   -3.1970   56.3659 H       1  ZINC000600609084    0.1000
     35 H35       -11.1140   -2.0011   55.4906 H       1  ZINC000600609084    0.0900
     36 H36       -10.7384   -3.5302   54.6605 H       1  ZINC000600609084    0.0800
     37 H37       -13.3990   -2.3565   54.2056 H       1  ZINC000600609084    0.4200
     38 H38       -12.0139    0.3391   52.6372 H       1  ZINC000600609084    0.1400
     39 H39       -10.2792    2.0459   52.5284 H       1  ZINC000600609084    0.1400
     40 H40        -7.8857    2.6354   52.2513 H       1  ZINC000600609084    0.1300
     41 H41        -5.5847    1.9224   51.8924 H       1  ZINC000600609084    0.1300
     42 H42        -5.0270   -0.4583   51.6455 H       1  ZINC000600609084    0.1300
     43 H43        -6.7615   -2.1648   51.7534 H       1  ZINC000600609084    0.1300
     44 H44        -9.1534   -2.7547   52.0416 H       1  ZINC000600609084    0.1500
     45 H45       -12.0201   -1.8939   58.0617 H       1  ZINC000600609084    0.4000
     46 H46        -8.4858   -2.7604   59.4198 H       1  ZINC000600609084    0.0800
     47 H47        -9.2216   -1.7130   58.1738 H       1  ZINC000600609084    0.0700
     48 H48        -8.6439   -1.1159   61.0732 H       1  ZINC000600609084    0.0700
     49 H49        -8.6683   -0.0068   59.6664 H       1  ZINC000600609084    0.0700
     50 H50       -10.7109    0.0684   61.4246 H       1  ZINC000600609084    0.0700
     51 H51       -11.0764    0.1189   59.6683 H       1  ZINC000600609084    0.0700
     52 H52       -13.3511   -3.0318   61.9303 H       1  ZINC000600609084    0.1200
     53 H53       -15.7686   -2.8302   61.5089 H       1  ZINC000600609084    0.1200
     54 H54       -16.5833   -1.4152   59.6658 H       1  ZINC000600609084    0.1200
     55 H55       -14.9804   -0.2012   58.2446 H       1  ZINC000600609084    0.1200
     56 H56       -12.5630   -0.3992   58.6688 H       1  ZINC000600609084    0.1200
@<TRIPOS>BOND
     1     1     2    2
     2     2     3    1
     3     2    19   am
     4     3     4    1
     5     3    33    1
     6     3    34    1
     7     4     5    1
     8     4    35    1
     9     4    36    1
    10     5     6   am
    11     5    37    1
    12     6     7    2
    13     6     8    2
    14     6     9    1
    15     9    18   ar
    16     9    10   ar
    17    10    11   ar
    18    10    38    1
    19    11    12   ar
    20    11    39    1
    21    12    17   ar
    22    12    13   ar
    23    13    14   ar
    24    13    40    1
    25    14    15   ar
    26    14    41    1
    27    15    16   ar
    28    15    42    1
    29    16    17   ar
    30    16    43    1
    31    17    18   ar
    32    18    44    1
    33    19    20    1
    34    19    45    1
    35    20    21    1
    36    20    25    1
    37    20    22    1
    38    22    23    1
    39    22    46    1
    40    22    47    1
    41    23    24    1
    42    23    48    1
    43    23    49    1
    44    24    25    1
    45    24    50    1
    46    24    51    1
    47    25    26    1
    48    25    27    1
    49    27    32   ar
    50    27    28   ar
    51    28    29   ar
    52    28    52    1
    53    29    30   ar
    54    29    53    1
    55    30    31   ar
    56    30    54    1
    57    31    32   ar
    58    31    55    1
    59    32    56    1
@<TRIPOS>SUBSTRUCTURE
     1 ZINC000600609084        1 TEMP              0 ****  ****    0 ROOT


##########                                Name:     oleObject70.pdb
##########                DOCK_Rotatable_Bonds:                   9
##########                         Heavy_Atoms:                  35
##########                    Molecular_Weight:             504.458
##########                DOCK_Rotatable_Bonds:                   9
##########                       Formal_Charge:          0.00010002
##########                     HBond_Acceptors:                   6
##########                        HBond_Donors:                   2
##########                         Heavy_Atoms:                  35
##########                          Grid_Score:          -38.228649
##########                     Grid_vdw_energy:          -37.732155
##########                      Grid_es_energy:           -0.496494
##########           Internal_energy_repulsive:           17.235428

@<TRIPOS>MOLECULE
oleObject70.pdb
 62 65 1 0 0
SMALL
NO_CHARGES


@<TRIPOS>ATOM
      1 C         -12.9121   -0.9889   51.0572 C.ar    1  UNL        -0.0620
      2 C         -11.7775   -1.7052   51.4642 C.ar    1  UNL        -0.0590
      3 C         -10.9098   -1.1841   52.4436 C.ar    1  UNL        -0.0456
      4 C         -11.1907    0.0748   53.0335 C.ar    1  UNL        -0.0187
      5 C         -12.3290    0.7901   52.6018 C.ar    1  UNL        -0.0565
      6 C         -13.1850    0.2626   51.6238 C.ar    1  UNL        -0.0619
      7 C         -10.2657    0.6760   54.1068 C.3     1  UNL         0.0909
      8 C         -10.3950    0.0100   55.4876 C.ar    1  UNL         0.0681
      9 C          -9.6544    0.4642   56.6084 C.ar    1  UNL        -0.0272
     10 C          -9.8245   -0.2008   57.8375 C.ar    1  UNL        -0.0559
     11 C         -10.7172   -1.2795   57.9140 C.ar    1  UNL        -0.0435
     12 C         -11.4146   -1.6574   56.7573 C.ar    1  UNL         0.0272
     13 N         -11.2592   -1.0279   55.5779 N.ar    1  UNL        -0.2587
     14 C          -8.6833    1.6366   56.5238 C.3     1  UNL        -0.0379
     15 N          -8.8754    0.8529   53.6324 N.am    1  UNL        -0.2987
     16 C          -8.2583    2.0527   53.3005 C.2     1  UNL         0.2437
     17 O          -8.8257    3.1286   53.3806 O.2     1  UNL        -0.2719
     18 C          -6.8229    1.9598   52.8406 C.ar    1  UNL         0.0371
     19 C          -5.9137    3.0307   52.9936 C.ar    1  UNL        -0.0494
     20 C          -4.5846    2.9094   52.5556 C.ar    1  UNL        -0.0570
     21 C          -4.1378    1.7197   51.9572 C.ar    1  UNL        -0.0341
     22 C          -5.0342    0.6494   51.8032 C.ar    1  UNL        -0.0570
     23 C          -6.3635    0.7694   52.2397 C.ar    1  UNL        -0.0494
     24 C          -2.6974    1.5896   51.4912 C.3     1  UNL         0.0208
     25 N          -2.5220    2.1336   50.1386 N.4     1  UNL        -0.3086
     26 C          -1.4272    1.5077   49.3854 C.3     1  UNL         0.0223
     27 C          -0.8826    2.4412   48.3126 C.ar    1  UNL        -0.0154
     28 C          -0.4466    3.7298   48.6762 C.ar    1  UNL        -0.0548
     29 C           0.0643    4.6092   47.7077 C.ar    1  UNL        -0.0431
     30 C           0.1442    4.2041   46.3664 C.ar    1  UNL         0.0421
     31 C          -0.2846    2.9207   45.9935 C.ar    1  UNL        -0.0245
     32 C          -0.7961    2.0397   46.9615 C.ar    1  UNL         0.0465
     33 CL         -1.3107    0.4431   46.4476 Cl      1  UNL        -0.0839
     34 CL          0.7818    5.2991   45.1583 Cl      1  UNL        -0.0843
     35 C          -9.6758   -1.9955   52.8261 C.3     1  UNL        -0.0394
     36 H         -13.5719   -1.3984   50.2978 H       1  UNL         0.0623
     37 H         -11.5694   -2.6695   51.0090 H       1  UNL         0.0626
     38 H         -12.5530    1.7679   53.0147 H       1  UNL         0.0627
     39 H         -14.0558    0.8270   51.3030 H       1  UNL         0.0623
     40 H         -10.6119    1.7037   54.2516 H       1  UNL         0.0624
     41 H          -9.2727    0.1110   58.7197 H       1  UNL         0.0627
     42 H         -10.8661   -1.8117   58.8487 H       1  UNL         0.0639
     43 H         -12.1171   -2.4896   56.7730 H       1  UNL         0.0840
     44 H          -7.8395    1.4038   55.8631 H       1  UNL         0.0280
     45 H          -8.2670    1.8866   57.5076 H       1  UNL         0.0280
     46 H          -9.1786    2.5378   56.1428 H       1  UNL         0.0280
     47 H          -8.3199    0.0147   53.5330 H       1  UNL         0.1508
     48 H          -6.2215    3.9655   53.4508 H       1  UNL         0.0631
     49 H          -3.8983    3.7418   52.6851 H       1  UNL         0.0626
     50 H          -4.7010   -0.2788   51.3471 H       1  UNL         0.0626
     51 H          -7.0376   -0.0729   52.1101 H       1  UNL         0.0631
     52 H          -2.4087    0.5305   51.5061 H       1  UNL         0.0479
     53 H          -2.0422    2.1218   52.1930 H       1  UNL         0.0479
     54 H          -2.3510    3.1369   50.2029 H       1  UNL         0.1229
     55 H          -1.7884    0.5850   48.9131 H       1  UNL         0.0480
     56 H          -0.6155    1.2258   50.0685 H       1  UNL         0.0480
     57 H          -0.5006    4.0497   49.7132 H       1  UNL         0.0627
     58 H           0.3987    5.6013   47.9978 H       1  UNL         0.0639
     59 H          -0.2189    2.6079   44.9553 H       1  UNL         0.0654
     60 H          -9.5401   -2.8626   52.1676 H       1  UNL         0.0280
     61 H          -9.7554   -2.3731   53.8530 H       1  UNL         0.0280
     62 H          -8.7640   -1.3895   52.7538 H       1  UNL         0.0280
@<TRIPOS>BOND
     1     1     2   ar
     2     1     6   ar
     3     1    36    1
     4     2     3   ar
     5     2    37    1
     6     3     4   ar
     7     3    35    1
     8     4     5   ar
     9     4     7    1
    10     5     6   ar
    11     5    38    1
    12     6    39    1
    13     7     8    1
    14     7    15    1
    15     7    40    1
    16     8     9   ar
    17     8    13   ar
    18     9    10   ar
    19     9    14    1
    20    10    11   ar
    21    10    41    1
    22    11    12   ar
    23    11    42    1
    24    12    13   ar
    25    12    43    1
    26    14    44    1
    27    14    45    1
    28    14    46    1
    29    15    16   am
    30    15    47    1
    31    16    17    2
    32    16    18    1
    33    18    19   ar
    34    18    23   ar
    35    19    20   ar
    36    19    48    1
    37    20    21   ar
    38    20    49    1
    39    21    22   ar
    40    21    24    1
    41    22    23   ar
    42    22    50    1
    43    23    51    1
    44    24    25    1
    45    24    52    1
    46    24    53    1
    47    25    26    1
    48    25    54    1
    49    26    27    1
    50    26    55    1
    51    26    56    1
    52    27    28   ar
    53    27    32   ar
    54    28    29   ar
    55    28    57    1
    56    29    30   ar
    57    29    58    1
    58    30    31   ar
    59    30    34    1
    60    31    32   ar
    61    31    59    1
    62    32    33    1
    63    35    60    1
    64    35    61    1
    65    35    62    1
@<TRIPOS>SUBSTRUCTURE
     1 UNL         1 TEMP              0 ****  ****    0 ROOT


##########                                Name:    ZINC001090961577
##########                DOCK_Rotatable_Bonds:                   9
##########                         Heavy_Atoms:                  24
##########                    Molecular_Weight:             352.458
##########                DOCK_Rotatable_Bonds:                   9
##########                       Formal_Charge:                0.02
##########                     HBond_Acceptors:                   8
##########                        HBond_Donors:                   1
##########                         Heavy_Atoms:                  24
##########                          Grid_Score:          -38.122261
##########                     Grid_vdw_energy:          -37.629971
##########                      Grid_es_energy:           -0.492289
##########           Internal_energy_repulsive:            7.751810

@<TRIPOS>MOLECULE
ZINC001090961577
 48 49 1 0 0
SMALL
USER_CHARGES


@<TRIPOS>ATOM
      1 C1         -8.5494   -0.9016   60.5691 C.3     1  ZINC001090961577   -0.1400
      2 C2         -9.6491   -0.9127   59.5054 C.3     1  ZINC001090961577   -0.0900
      3 S3         -9.8684   -2.6013   58.8800 S.3     1  ZINC001090961577   -0.2700
      4 C4        -11.1597   -2.4058   57.6211 C.3     1  ZINC001090961577   -0.0700
      5 C5        -11.5067   -3.7735   57.0297 C.3     1  ZINC001090961577   -0.1200
      6 C6        -12.5576   -3.6073   55.9624 C.2     1  ZINC001090961577    0.5400
      7 O7        -13.7292   -3.7596   56.2361 O.2     1  ZINC001090961577   -0.5300
      8 N8        -12.1953   -3.2896   54.7037 N.am    1  ZINC001090961577   -0.6200
      9 C9        -13.1125   -3.0981   53.5706 C.3     1  ZINC001090961577    0.1100
     10 C10       -12.2539   -2.7211   52.3449 C.3     1  ZINC001090961577   -0.1100
     11 H11       -12.0399   -3.6013   51.7385 H       1  ZINC001090961577    0.0900
     12 C12       -12.9486   -1.6453   51.5076 C.3     1  ZINC001090961577   -0.1400
     13 C13       -10.9545   -2.1682   52.9876 C.3     1  ZINC001090961577    0.1500
     14 H14       -11.0749   -1.1238   53.2757 H       1  ZINC001090961577    0.1200
     15 N15        -9.8115   -2.3328   52.0861 N.pl3   1  ZINC001090961577   -0.6700
     16 C16        -8.7807   -1.4169   52.1051 C.ar    1  ZINC001090961577    0.5900
     17 N17        -9.0061   -0.2039   52.5931 N.ar    1  ZINC001090961577   -0.5700
     18 C18        -8.0465    0.7012   52.6291 C.ar    1  ZINC001090961577    0.2700
     19 C19        -6.7762    0.3644   52.1420 C.ar    1  ZINC001090961577   -0.3000
     20 C20        -5.6741    1.3434   52.1627 C.2     1  ZINC001090961577    0.5300
     21 O21        -5.8746    2.4757   52.5553 O.2     1  ZINC001090961577   -0.5100
     22 O22        -4.4445    0.9826   51.7463 O.3     1  ZINC001090961577   -0.3600
     23 C23        -3.3677    1.9304   51.9715 C.3     1  ZINC001090961577    0.0400
     24 C24        -6.5808   -0.9277   51.6352 C.ar    1  ZINC001090961577    0.2600
     25 N25        -7.5913   -1.7762   51.6398 N.ar    1  ZINC001090961577   -0.5700
     26 C26       -10.8144   -3.0702   54.2365 C.3     1  ZINC001090961577    0.0900
     27 H27        -8.4175    0.1130   60.9448 H       1  ZINC001090961577    0.0700
     28 H28        -8.8320   -1.5596   61.3907 H       1  ZINC001090961577    0.0700
     29 H29        -7.6150   -1.2504   60.1293 H       1  ZINC001090961577    0.0700
     30 H30       -10.5835   -0.5639   59.9452 H       1  ZINC001090961577    0.0800
     31 H31        -9.3664   -0.2548   58.6836 H       1  ZINC001090961577    0.0800
     32 H32       -12.0490   -1.9709   58.0772 H       1  ZINC001090961577    0.0900
     33 H33       -10.7990   -1.7486   56.8296 H       1  ZINC001090961577    0.0900
     34 H34       -10.6124   -4.2181   56.5929 H       1  ZINC001090961577    0.1000
     35 H35       -11.8882   -4.4236   57.8170 H       1  ZINC001090961577    0.1000
     36 H36       -13.6553   -4.0223   53.3729 H       1  ZINC001090961577    0.0800
     37 H37       -13.8139   -2.2940   53.7933 H       1  ZINC001090961577    0.0800
     38 H38       -13.1264   -0.7639   52.1237 H       1  ZINC001090961577    0.0600
     39 H39       -12.3141   -1.3763   50.6630 H       1  ZINC001090961577    0.0600
     40 H40       -13.8999   -2.0294   51.1396 H       1  ZINC001090961577    0.0700
     41 H41        -9.7797   -3.0862   51.4759 H       1  ZINC001090961577    0.4200
     42 H42        -8.2374    1.6868   53.0274 H       1  ZINC001090961577    0.1800
     43 H43        -2.4340    1.5169   51.5901 H       1  ZINC001090961577    0.1100
     44 H44        -3.5905    2.8632   51.4535 H       1  ZINC001090961577    0.0700
     45 H45        -3.2705    2.1225   53.0400 H       1  ZINC001090961577    0.0700
     46 H46        -5.6166   -1.2257   51.2507 H       1  ZINC001090961577    0.1800
     47 H47       -10.2261   -2.5671   55.0038 H       1  ZINC001090961577    0.0900
     48 H48       -10.3548   -4.0214   53.9677 H       1  ZINC001090961577    0.0800
@<TRIPOS>BOND
     1     1     2    1
     2     1    27    1
     3     1    28    1
     4     1    29    1
     5     2     3    1
     6     2    30    1
     7     2    31    1
     8     3     4    1
     9     4     5    1
    10     4    32    1
    11     4    33    1
    12     5     6    1
    13     5    34    1
    14     5    35    1
    15     6     7    2
    16     6     8   am
    17     8    26    1
    18     8     9    1
    19     9    10    1
    20     9    36    1
    21     9    37    1
    22    10    11    1
    23    10    12    1
    24    10    13    1
    25    12    38    1
    26    12    39    1
    27    12    40    1
    28    13    14    1
    29    13    15    1
    30    13    26    1
    31    15    16    1
    32    15    41    1
    33    16    25   ar
    34    16    17   ar
    35    17    18   ar
    36    18    19   ar
    37    18    42    1
    38    19    20    1
    39    19    24   ar
    40    20    21    2
    41    20    22    1
    42    22    23    1
    43    23    43    1
    44    23    44    1
    45    23    45    1
    46    24    25   ar
    47    24    46    1
    48    26    47    1
    49    26    48    1
@<TRIPOS>SUBSTRUCTURE
     1 ZINC001090961577        1 TEMP              0 ****  ****    0 ROOT


##########                                Name:    ZINC000770814339
##########                DOCK_Rotatable_Bonds:                  13
##########                         Heavy_Atoms:                  28
##########                    Molecular_Weight:             409.423
##########                DOCK_Rotatable_Bonds:                  13
##########                       Formal_Charge:          -0.0100008
##########                     HBond_Acceptors:                  12
##########                        HBond_Donors:                   4
##########                         Heavy_Atoms:                  28
##########                          Grid_Score:          -37.774700
##########                     Grid_vdw_energy:          -36.578598
##########                      Grid_es_energy:           -1.196104
##########           Internal_energy_repulsive:            8.685634

@<TRIPOS>MOLECULE
ZINC000770814339
 47 48 1 0 0
SMALL
USER_CHARGES


@<TRIPOS>ATOM
      1 C1        -10.4796   -2.8848   53.8794 C.3     1  ZINC000770814339   -0.1500
      2 C2        -10.4659   -2.4964   52.3995 C.3     1  ZINC000770814339    0.0600
      3 O3         -9.1126   -2.1514   52.0022 O.3     1  ZINC000770814339   -0.3500
      4 C4         -8.7093   -0.8937   52.2408 C.2     1  ZINC000770814339    0.4700
      5 O5         -9.5036   -0.0665   52.6213 O.2     1  ZINC000770814339   -0.4800
      6 C6         -7.2659   -0.5131   52.0341 C.3     1  ZINC000770814339    0.0700
      7 O7         -7.0677    0.8425   52.4404 O.3     1  ZINC000770814339   -0.1800
      8 N8         -5.7640    1.3345   52.1888 N.2     1  ZINC000770814339   -0.2800
      9 C9         -5.3503    2.4176   52.7835 C.2     1  ZINC000770814339    0.1800
     10 C10        -3.9864    2.9336   52.5188 C.2     1  ZINC000770814339    0.5900
     11 O11        -3.7522    4.1200   52.6368 O.2     1  ZINC000770814339   -0.5100
     12 N12        -3.0060    2.0868   52.1470 N.am    1  ZINC000770814339   -0.7000
     13 C13        -1.6575    2.5966   51.8870 C.3     1  ZINC000770814339    0.1500
     14 C14        -1.1226    1.9792   50.6206 C.ar    1  ZINC000770814339   -0.0600
     15 C15        -1.9349    1.8719   49.5072 C.ar    1  ZINC000770814339   -0.1200
     16 C16        -1.4442    1.3056   48.3456 C.ar    1  ZINC000770814339   -0.0200
     17 C17        -0.1410    0.8472   48.2971 C.ar    1  ZINC000770814339   -0.6700
     18 S18         0.4842    0.1249   46.8165 S.o2    1  ZINC000770814339    2.7000
     19 N19         1.3554    1.2937   46.0308 N.am    1  ZINC000770814339   -1.2500
     20 O20         1.4171   -0.8691   47.2178 O.2     1  ZINC000770814339   -0.9600
     21 O21        -0.6438   -0.1530   45.9982 O.2     1  ZINC000770814339   -0.9600
     22 C22         0.6718    0.9557   49.4099 C.ar    1  ZINC000770814339   -0.0200
     23 C23         0.1822    1.5255   50.5704 C.ar    1  ZINC000770814339   -0.1200
     24 C24        -6.2402    3.1307   53.7214 C.2     1  ZINC000770814339    0.0600
     25 C25        -6.0759    3.2367   55.0858 C.2     1  ZINC000770814339   -0.2000
     26 C26        -7.1372    3.9920   55.5825 C.2     1  ZINC000770814339    0.0400
     27 N27        -7.9127    4.3332   54.5846 N.2     1  ZINC000770814339   -0.2600
     28 N28        -7.3769    3.8136   53.3997 N.pl3   1  ZINC000770814339   -0.4400
     29 H29       -11.4955   -3.1437   54.1777 H       1  ZINC000770814339    0.0800
     30 H30        -9.8251   -3.7421   54.0360 H       1  ZINC000770814339    0.0700
     31 H31       -10.1279   -2.0450   54.4787 H       1  ZINC000770814339    0.0700
     32 H32       -10.8176   -3.3362   51.8002 H       1  ZINC000770814339    0.0700
     33 H33       -11.1204   -1.6389   52.2429 H       1  ZINC000770814339    0.0700
     34 H34        -6.6289   -1.1676   52.6290 H       1  ZINC000770814339    0.1100
     35 H35        -7.0100   -0.6174   50.9798 H       1  ZINC000770814339    0.1100
     36 H36        -3.1934    1.1398   52.0516 H       1  ZINC000770814339    0.4100
     37 H37        -1.6939    3.6802   51.7757 H       1  ZINC000770814339    0.0900
     38 H38        -1.0045    2.3386   52.7208 H       1  ZINC000770814339    0.0900
     39 H39        -2.9531    2.2300   49.5452 H       1  ZINC000770814339    0.1400
     40 H40        -2.0792    1.2211   47.4761 H       1  ZINC000770814339    0.1500
     41 H41         0.9232    2.1165   45.7534 H       1  ZINC000770814339    0.4200
     42 H42         2.2979    1.1554   45.8480 H       1  ZINC000770814339    0.4200
     43 H43         1.6901    0.5979   49.3719 H       1  ZINC000770814339    0.1500
     44 H44         0.8173    1.6104   51.4398 H       1  ZINC000770814339    0.1400
     45 H45        -5.2703    2.8112   55.6656 H       1  ZINC000770814339    0.1700
     46 H46        -7.2938    4.2520   56.6189 H       1  ZINC000770814339    0.1900
     47 H47        -7.7501    3.9159   52.5102 H       1  ZINC000770814339    0.4500
@<TRIPOS>BOND
     1     1     2    1
     2     1    29    1
     3     1    30    1
     4     1    31    1
     5     2     3    1
     6     2    32    1
     7     2    33    1
     8     3     4    1
     9     4     5    2
    10     4     6    1
    11     6     7    1
    12     6    34    1
    13     6    35    1
    14     7     8    1
    15     8     9    2
    16     9    10    1
    17     9    24    1
    18    10    11    2
    19    10    12   am
    20    12    13    1
    21    12    36    1
    22    13    14    1
    23    13    37    1
    24    13    38    1
    25    14    23   ar
    26    14    15   ar
    27    15    16   ar
    28    15    39    1
    29    16    17   ar
    30    16    40    1
    31    17    18    1
    32    17    22   ar
    33    18    19   am
    34    18    20    2
    35    18    21    2
    36    19    41    1
    37    19    42    1
    38    22    23   ar
    39    22    43    1
    40    23    44    1
    41    24    28    1
    42    24    25    2
    43    25    26    1
    44    25    45    1
    45    26    27    2
    46    26    46    1
    47    27    28    1
    48    28    47    1
@<TRIPOS>SUBSTRUCTURE
     1 ZINC000770814339        1 TEMP              0 ****  ****    0 ROOT


##########                                Name:    ZINC000428748914
##########                DOCK_Rotatable_Bonds:                  11
##########                         Heavy_Atoms:                  30
##########                    Molecular_Weight:             413.492
##########                DOCK_Rotatable_Bonds:                  11
##########                       Formal_Charge:           0.0199993
##########                     HBond_Acceptors:                   7
##########                        HBond_Donors:                   3
##########                         Heavy_Atoms:                  30
##########                          Grid_Score:          -37.722683
##########                     Grid_vdw_energy:          -36.533291
##########                      Grid_es_energy:           -1.189390
##########           Internal_energy_repulsive:           23.553448

@<TRIPOS>MOLECULE
ZINC000428748914
 58 61 1 0 0
SMALL
USER_CHARGES


@<TRIPOS>ATOM
      1 O1         -3.2821    2.6219   51.9151 O.2     1  ZINC000428748914   -0.5900
      2 C2         -3.4501    1.5987   51.2801 C.2     1  ZINC000428748914    0.7000
      3 N3         -4.6467    0.9791   51.3048 N.am    1  ZINC000428748914   -0.7400
      4 C4         -5.7432    1.5352   52.1016 C.3     1  ZINC000428748914    0.1900
      5 C5         -6.8760    0.5428   52.1590 C.ar    1  ZINC000428748914   -0.2000
      6 C6         -8.1548    0.9575   52.5035 C.ar    1  ZINC000428748914   -0.0200
      7 C7         -9.1663    0.0135   52.5442 C.ar    1  ZINC000428748914   -0.1900
      8 C8         -8.8693   -1.3088   52.2409 C.ar    1  ZINC000428748914    0.3300
      9 O9         -9.8520   -2.2435   52.2768 O.3     1  ZINC000428748914   -0.3000
     10 C10       -11.1108   -1.8409   52.8203 C.3     1  ZINC000428748914    0.0800
     11 C11       -11.9975   -1.2048   51.7211 C.3     1  ZINC000428748914   -0.1400
     12 C12       -13.4284   -1.3996   52.2810 C.3     1  ZINC000428748914   -0.1200
     13 C13       -13.3880   -2.7906   52.9469 C.3     1  ZINC000428748914   -0.1200
     14 C14       -11.9144   -3.0711   53.2898 C.3     1  ZINC000428748914   -0.1200
     15 N15        -7.6373   -1.6655   51.9168 N.ar    1  ZINC000428748914   -0.5400
     16 C16        -6.6538   -0.7877   51.8639 C.ar    1  ZINC000428748914    0.1600
     17 N17        -2.4414    1.0872   50.5472 N.am    1  ZINC000428748914   -0.7400
     18 C18        -1.1406    1.7607   50.5203 C.3     1  ZINC000428748914    0.1800
     19 C19        -1.0855    2.7157   49.3262 C.3     1  ZINC000428748914   -0.1300
     20 C20        -1.6521    4.1151   49.5738 C.3     1  ZINC000428748914    0.1100
     21 O21        -0.8717    4.7753   50.5724 O.3     1  ZINC000428748914   -0.5700
     22 C22        -1.2711    2.1144   47.9316 C.3     1  ZINC000428748914   -0.1400
     23 C23         0.1105    2.5951   48.3798 C.3     1  ZINC000428748914   -0.1000
     24 H24         0.8582    1.8354   48.6078 H       1  ZINC000428748914    0.1200
     25 C25         0.6402    3.8635   47.7619 C.ar    1  ZINC000428748914   -0.0700
     26 C26         0.3860    4.1425   46.4320 C.ar    1  ZINC000428748914   -0.0900
     27 C27         0.8712    5.3052   45.8643 C.ar    1  ZINC000428748914   -0.1500
     28 C28         1.6118    6.1913   46.6283 C.ar    1  ZINC000428748914    0.1000
     29 F29         2.0862    7.3286   46.0745 F       1  ZINC000428748914   -0.1400
     30 C30         1.8654    5.9111   47.9603 C.ar    1  ZINC000428748914   -0.1500
     31 C31         1.3751    4.7499   48.5270 C.ar    1  ZINC000428748914   -0.0800
     32 H32        -4.7820    0.1650   50.7951 H       1  ZINC000428748914    0.4000
     33 H33        -5.3898    1.7420   53.1118 H       1  ZINC000428748914    0.0800
     34 H34        -6.0931    2.4599   51.6427 H       1  ZINC000428748914    0.0800
     35 H35        -8.3562    1.9930   52.7348 H       1  ZINC000428748914    0.1400
     36 H36       -10.1732    0.3012   52.8087 H       1  ZINC000428748914    0.1400
     37 H37       -10.9636   -1.1438   53.6453 H       1  ZINC000428748914    0.1000
     38 H38       -11.7688   -0.1455   51.6053 H       1  ZINC000428748914    0.0700
     39 H39       -11.8778   -1.7326   50.7748 H       1  ZINC000428748914    0.0800
     40 H40       -13.6576   -0.6302   53.0182 H       1  ZINC000428748914    0.0700
     41 H41       -14.1596   -1.3847   51.4728 H       1  ZINC000428748914    0.0700
     42 H42       -13.9888   -2.7868   53.8563 H       1  ZINC000428748914    0.0700
     43 H43       -13.7610   -3.5464   52.2557 H       1  ZINC000428748914    0.0700
     44 H44       -11.5722   -3.9631   52.7651 H       1  ZINC000428748914    0.0800
     45 H45       -11.8001   -3.2034   54.3657 H       1  ZINC000428748914    0.0700
     46 H46        -5.6605   -1.1155   51.5951 H       1  ZINC000428748914    0.1600
     47 H47        -2.5766    0.2730   50.0375 H       1  ZINC000428748914    0.3900
     48 H48        -1.0042    2.3244   51.4431 H       1  ZINC000428748914    0.0700
     49 H49        -0.3486    1.0175   50.4280 H       1  ZINC000428748914    0.0900
     50 H50        -1.6188    4.6897   48.6481 H       1  ZINC000428748914    0.0500
     51 H51        -2.6844    4.0342   49.9141 H       1  ZINC000428748914    0.0600
     52 H52        -0.9422    4.3797   51.4519 H       1  ZINC000428748914    0.3800
     53 H53        -1.4325    1.0385   47.8648 H       1  ZINC000428748914    0.1100
     54 H54        -1.7972    2.7158   47.1902 H       1  ZINC000428748914    0.1100
     55 H55        -0.1918    3.4511   45.8364 H       1  ZINC000428748914    0.1400
     56 H56         0.6730    5.5226   44.8252 H       1  ZINC000428748914    0.1400
     57 H57         2.4432    6.6013   48.5570 H       1  ZINC000428748914    0.1400
     58 H58         1.5725    4.5313   49.5661 H       1  ZINC000428748914    0.1300
@<TRIPOS>BOND
     1     1     2    2
     2     2     3   am
     3     2    17   am
     4     3     4    1
     5     3    32    1
     6     4     5    1
     7     4    33    1
     8     4    34    1
     9     5    16   ar
    10     5     6   ar
    11     6     7   ar
    12     6    35    1
    13     7     8   ar
    14     7    36    1
    15     8     9    1
    16     8    15   ar
    17     9    10    1
    18    10    14    1
    19    10    11    1
    20    10    37    1
    21    11    12    1
    22    11    38    1
    23    11    39    1
    24    12    13    1
    25    12    40    1
    26    12    41    1
    27    13    14    1
    28    13    42    1
    29    13    43    1
    30    14    44    1
    31    14    45    1
    32    15    16   ar
    33    16    46    1
    34    17    18    1
    35    17    47    1
    36    18    19    1
    37    18    48    1
    38    18    49    1
    39    19    23    1
    40    19    20    1
    41    19    22    1
    42    20    21    1
    43    20    50    1
    44    20    51    1
    45    21    52    1
    46    22    23    1
    47    22    53    1
    48    22    54    1
    49    23    24    1
    50    23    25    1
    51    25    31   ar
    52    25    26   ar
    53    26    27   ar
    54    26    55    1
    55    27    28   ar
    56    27    56    1
    57    28    29    1
    58    28    30   ar
    59    30    31   ar
    60    30    57    1
    61    31    58    1
@<TRIPOS>SUBSTRUCTURE
     1 ZINC000428748914        1 TEMP              0 ****  ****    0 ROOT


##########                                Name:    ZINC000502834785
##########                DOCK_Rotatable_Bonds:                   9
##########                         Heavy_Atoms:                  26
##########                    Molecular_Weight:             356.468
##########                DOCK_Rotatable_Bonds:                   9
##########                       Formal_Charge:           0.0199998
##########                     HBond_Acceptors:                   6
##########                        HBond_Donors:                   2
##########                         Heavy_Atoms:                  26
##########                          Grid_Score:          -37.474403
##########                     Grid_vdw_energy:          -36.819431
##########                      Grid_es_energy:           -0.654972
##########           Internal_energy_repulsive:           21.596851

@<TRIPOS>MOLECULE
ZINC000502834785
 54 56 1 0 0
SMALL
USER_CHARGES


@<TRIPOS>ATOM
      1 C1         -2.3489    3.0140   52.7859 C.3     1  ZINC000502834785   -0.1800
      2 C2         -3.1209    2.7337   51.4950 C.3     1  ZINC000502834785    0.0800
      3 C3         -2.1652    2.1704   50.4414 C.3     1  ZINC000502834785   -0.1500
      4 O4         -4.1560    1.7835   51.7558 O.3     1  ZINC000502834785   -0.3800
      5 C5         -5.2478    2.3071   52.5147 C.3     1  ZINC000502834785    0.1000
      6 C6         -6.4023    1.3397   52.4671 C.ar    1  ZINC000502834785   -0.0800
      7 C7         -7.6681    1.7555   52.8355 C.ar    1  ZINC000502834785   -0.1000
      8 C8         -8.7271    0.8681   52.7918 C.ar    1  ZINC000502834785   -0.1000
      9 C9         -8.5203   -0.4350   52.3794 C.ar    1  ZINC000502834785   -0.1000
     10 C10        -9.6748   -1.4026   52.3323 C.3     1  ZINC000502834785    0.1600
     11 N11       -10.1268   -1.6901   53.6958 N.am    1  ZINC000502834785   -0.7300
     12 C12       -10.5997   -2.9137   54.0050 C.2     1  ZINC000502834785    0.5100
     13 O13       -10.6496   -3.7772   53.1549 O.2     1  ZINC000502834785   -0.5200
     14 C14       -11.0664   -3.2089   55.4073 C.3     1  ZINC000502834785    0.0300
     15 N15       -12.1366   -4.2144   55.3656 N.3     1  ZINC000502834785   -0.5000
     16 C16       -13.2978   -3.7207   54.5951 C.3     1  ZINC000502834785    0.0500
     17 C17       -14.5309   -4.3450   55.2944 C.3     1  ZINC000502834785   -0.1300
     18 C18       -14.1066   -4.2903   56.7857 C.3     1  ZINC000502834785   -0.1300
     19 C19       -12.5886   -4.5616   56.7254 C.3     1  ZINC000502834785    0.1500
     20 H20       -12.3920   -5.6152   56.9239 H       1  ZINC000502834785    0.1100
     21 C21       -11.8744   -3.7070   57.7405 C.2     1  ZINC000502834785    0.0600
     22 N22       -10.7623   -4.0156   58.3568 N.2     1  ZINC000502834785   -0.2900
     23 N23       -10.4302   -2.9598   59.2155 N.pl3   1  ZINC000502834785   -0.4800
     24 C24       -11.3805   -2.0096   59.0923 C.2     1  ZINC000502834785    0.0600
     25 C25       -12.2827   -2.4442   58.1822 C.2     1  ZINC000502834785   -0.2600
     26 C26        -7.2548   -0.8504   52.0098 C.ar    1  ZINC000502834785   -0.1000
     27 C27        -6.1965    0.0380   52.0498 C.ar    1  ZINC000502834785   -0.1000
     28 H28        -3.0298    3.4153   53.5366 H       1  ZINC000502834785    0.0600
     29 H29        -1.9076    2.0877   53.1538 H       1  ZINC000502834785    0.0600
     30 H30        -1.5593    3.7387   52.5870 H       1  ZINC000502834785    0.0700
     31 H31        -3.5622    3.6599   51.1272 H       1  ZINC000502834785    0.0600
     32 H32        -1.7239    1.2441   50.8092 H       1  ZINC000502834785    0.0600
     33 H33        -2.7152    1.9707   49.5217 H       1  ZINC000502834785    0.0600
     34 H34        -1.3757    2.8951   50.2424 H       1  ZINC000502834785    0.0700
     35 H35        -4.9358    2.4499   53.5493 H       1  ZINC000502834785    0.0600
     36 H36        -5.5575    3.2635   52.0934 H       1  ZINC000502834785    0.0600
     37 H37        -7.8296    2.7736   53.1576 H       1  ZINC000502834785    0.1300
     38 H38        -9.7159    1.1927   53.0803 H       1  ZINC000502834785    0.1300
     39 H39       -10.4939   -0.9634   51.7630 H       1  ZINC000502834785    0.0800
     40 H40        -9.3542   -2.3276   51.8532 H       1  ZINC000502834785    0.0800
     41 H41       -10.0858   -0.9998   54.3761 H       1  ZINC000502834785    0.4000
     42 H42       -10.2317   -3.5908   55.9952 H       1  ZINC000502834785    0.1000
     43 H43       -11.4445   -2.2946   55.8643 H       1  ZINC000502834785    0.0800
     44 H44       -13.3472   -2.6327   54.6388 H       1  ZINC000502834785    0.0400
     45 H45       -13.2375   -4.0575   53.5602 H       1  ZINC000502834785    0.1000
     46 H46       -15.4240   -3.7449   55.1203 H       1  ZINC000502834785    0.0800
     47 H47       -14.6845   -5.3741   54.9698 H       1  ZINC000502834785    0.0800
     48 H48       -14.3056   -3.3049   57.2071 H       1  ZINC000502834785    0.0800
     49 H49       -14.6142   -5.0657   57.3595 H       1  ZINC000502834785    0.0800
     50 H50        -9.6542   -2.9189   59.7961 H       1  ZINC000502834785    0.4400
     51 H51       -11.4128   -1.0690   59.6220 H       1  ZINC000502834785    0.1800
     52 H52       -13.1654   -1.9126   57.8587 H       1  ZINC000502834785    0.1500
     53 H53        -7.0933   -1.8684   51.6872 H       1  ZINC000502834785    0.1300
     54 H54        -5.2077   -0.2865   51.7610 H       1  ZINC000502834785    0.1200
@<TRIPOS>BOND
     1     1     2    1
     2     1    28    1
     3     1    29    1
     4     1    30    1
     5     2     3    1
     6     2     4    1
     7     2    31    1
     8     3    32    1
     9     3    33    1
    10     3    34    1
    11     4     5    1
    12     5     6    1
    13     5    35    1
    14     5    36    1
    15     6    27   ar
    16     6     7   ar
    17     7     8   ar
    18     7    37    1
    19     8     9   ar
    20     8    38    1
    21     9    10    1
    22     9    26   ar
    23    10    11    1
    24    10    39    1
    25    10    40    1
    26    11    12   am
    27    11    41    1
    28    12    13    2
    29    12    14    1
    30    14    15    1
    31    14    42    1
    32    14    43    1
    33    15    19    1
    34    15    16    1
    35    16    17    1
    36    16    44    1
    37    16    45    1
    38    17    18    1
    39    17    46    1
    40    17    47    1
    41    18    19    1
    42    18    48    1
    43    18    49    1
    44    19    20    1
    45    19    21    1
    46    21    25    1
    47    21    22    2
    48    22    23    1
    49    23    24    1
    50    23    50    1
    51    24    25    2
    52    24    51    1
    53    25    52    1
    54    26    27   ar
    55    26    53    1
    56    27    54    1
@<TRIPOS>SUBSTRUCTURE
     1 ZINC000502834785        1 TEMP              0 ****  ****    0 ROOT


##########                                Name:    ZINC001591898574
##########                DOCK_Rotatable_Bonds:                  10
##########                         Heavy_Atoms:                  26
##########                    Molecular_Weight:             383.434
##########                DOCK_Rotatable_Bonds:                  10
##########                       Formal_Charge:         5.96046e-08
##########                     HBond_Acceptors:                  13
##########                        HBond_Donors:                   3
##########                         Heavy_Atoms:                  26
##########                          Grid_Score:          -37.398911
##########                     Grid_vdw_energy:          -34.217560
##########                      Grid_es_energy:           -3.181350
##########           Internal_energy_repulsive:            8.982397

@<TRIPOS>MOLECULE
ZINC001591898574
 47 48 1 0 0
SMALL
USER_CHARGES


@<TRIPOS>ATOM
      1 C1        -13.4069   -0.9370   50.1810 C.3     1  ZINC001591898574   -0.1100
      2 C2        -12.6381   -1.6449   51.2667 C.ar    1  ZINC001591898574    0.2300
      3 C3        -13.3070   -2.3514   52.2504 C.ar    1  ZINC001591898574   -0.2400
      4 C4        -12.5548   -2.9928   53.2374 C.ar    1  ZINC001591898574    0.3000
      5 C5        -13.2254   -3.7635   54.3139 C.2     1  ZINC001591898574    0.2100
      6 N6        -12.9762   -5.0105   54.6619 N.2     1  ZINC001591898574   -0.2500
      7 N7        -13.7651   -5.3133   55.6349 N.pl3   1  ZINC001591898574   -0.2200
      8 N8        -14.5060   -4.2984   55.9144 N.2     1  ZINC001591898574   -0.0400
      9 N9        -14.1984   -3.3254   55.1254 N.2     1  ZINC001591898574   -0.2500
     10 N10       -11.2278   -2.9026   53.1975 N.ar    1  ZINC001591898574   -0.5500
     11 C11       -10.6273   -2.2160   52.2380 C.ar    1  ZINC001591898574    0.5800
     12 N12        -9.2452   -2.1420   52.2257 N.pl3   1  ZINC001591898574   -0.7000
     13 C13        -8.5816   -0.8360   52.2124 C.3     1  ZINC001591898574    0.1400
     14 C14        -7.0956   -1.0222   51.8990 C.3     1  ZINC001591898574   -0.1500
     15 C15        -6.4777    0.3297   51.5363 C.3     1  ZINC001591898574    0.1200
     16 N16        -6.3566    1.1509   52.7434 N.am    1  ZINC001591898574   -0.7300
     17 C17        -7.0763    2.2843   52.8624 C.2     1  ZINC001591898574    0.4900
     18 O18        -7.8252    2.6235   51.9708 O.2     1  ZINC001591898574   -0.5300
     19 C19        -6.9504    3.1299   54.1034 C.3     1  ZINC001591898574    0.1000
     20 N20        -6.3172    4.4063   53.7623 N.am    1  ZINC001591898574   -0.9800
     21 C21        -7.1438    5.5614   53.4039 C.3     1  ZINC001591898574    0.1000
     22 S22        -4.6669    4.5432   53.7820 S.o2    1  ZINC001591898574    2.6100
     23 C23        -4.2009    4.1555   55.4916 C.3     1  ZINC001591898574   -0.6600
     24 O24        -4.2201    3.5229   52.8996 O.2     1  ZINC001591898574   -0.9500
     25 O25        -4.4257    5.9146   53.4981 O.2     1  ZINC001591898574   -0.9600
     26 N26       -11.3153   -1.6020   51.2865 N.ar    1  ZINC001591898574   -0.5600
     27 H27       -13.5561   -1.6148   49.3404 H       1  ZINC001591898574    0.0900
     28 H28       -14.3752   -0.6204   50.5687 H       1  ZINC001591898574    0.0900
     29 H29       -12.8456   -0.0638   49.8484 H       1  ZINC001591898574    0.0900
     30 H30       -14.3857   -2.4053   52.2554 H       1  ZINC001591898574    0.1600
     31 H31       -13.7959   -6.1716   56.0858 H       1  ZINC001591898574    0.4800
     32 H32        -8.7160   -2.9549   52.2258 H       1  ZINC001591898574    0.4200
     33 H33        -9.0375   -0.2046   51.4497 H       1  ZINC001591898574    0.0700
     34 H34        -8.6907   -0.3632   53.1884 H       1  ZINC001591898574    0.0700
     35 H35        -6.5883   -1.4307   52.7730 H       1  ZINC001591898574    0.0800
     36 H36        -6.9846   -1.7091   51.0601 H       1  ZINC001591898574    0.0800
     37 H37        -5.4899    0.1732   51.1028 H       1  ZINC001591898574    0.0700
     38 H38        -7.1154    0.8384   50.8132 H       1  ZINC001591898574    0.0700
     39 H39        -5.7586    0.8790   53.4570 H       1  ZINC001591898574    0.4000
     40 H40        -7.9408    3.3154   54.5188 H       1  ZINC001591898574    0.1200
     41 H41        -6.3399    2.6067   54.8393 H       1  ZINC001591898574    0.1300
     42 H42        -7.3840    6.1293   54.3028 H       1  ZINC001591898574    0.0600
     43 H43        -6.5971    6.1974   52.7077 H       1  ZINC001591898574    0.0700
     44 H44        -8.0654    5.2171   52.9347 H       1  ZINC001591898574    0.0700
     45 H45        -4.5283    3.1453   55.7373 H       1  ZINC001591898574    0.1300
     46 H46        -3.1179    4.2222   55.5970 H       1  ZINC001591898574    0.1200
     47 H47        -4.6761    4.8660   56.1679 H       1  ZINC001591898574    0.1300
@<TRIPOS>BOND
     1     1     2    1
     2     1    27    1
     3     1    28    1
     4     1    29    1
     5     2    26   ar
     6     2     3   ar
     7     3     4   ar
     8     3    30    1
     9     4     5    1
    10     4    10   ar
    11     5     9    1
    12     5     6    2
    13     6     7    1
    14     7     8    1
    15     7    31    1
    16     8     9    2
    17    10    11   ar
    18    11    12    1
    19    11    26   ar
    20    12    13    1
    21    12    32    1
    22    13    14    1
    23    13    33    1
    24    13    34    1
    25    14    15    1
    26    14    35    1
    27    14    36    1
    28    15    16    1
    29    15    37    1
    30    15    38    1
    31    16    17   am
    32    16    39    1
    33    17    18    2
    34    17    19    1
    35    19    20    1
    36    19    40    1
    37    19    41    1
    38    20    21    1
    39    20    22   am
    40    21    42    1
    41    21    43    1
    42    21    44    1
    43    22    23    1
    44    22    24    2
    45    22    25    2
    46    23    45    1
    47    23    46    1
    48    23    47    1
@<TRIPOS>SUBSTRUCTURE
     1 ZINC001591898574        1 TEMP              0 ****  ****    0 ROOT


##########                                Name:    ZINC000767361237
##########                DOCK_Rotatable_Bonds:                  10
##########                         Heavy_Atoms:                  30
##########                    Molecular_Weight:             409.439
##########                DOCK_Rotatable_Bonds:                  10
##########                       Formal_Charge:          -0.0300005
##########                     HBond_Acceptors:                   7
##########                        HBond_Donors:                   1
##########                         Heavy_Atoms:                  30
##########                          Grid_Score:          -37.350758
##########                     Grid_vdw_energy:          -37.157200
##########                      Grid_es_energy:           -0.193558
##########           Internal_energy_repulsive:           16.738861

@<TRIPOS>MOLECULE
ZINC000767361237
 53 55 1 0 0
SMALL
USER_CHARGES


@<TRIPOS>ATOM
      1 C1        -10.6494   -4.8395   57.7309 C.3     1  ZINC000767361237   -0.1200
      2 C2        -11.3117   -4.1071   56.5924 C.ar    1  ZINC000767361237   -0.0900
      3 C3        -10.8382   -2.8696   56.1982 C.ar    1  ZINC000767361237   -0.1200
      4 C4        -11.4457   -2.1978   55.1539 C.ar    1  ZINC000767361237   -0.1100
      5 C5        -12.5264   -2.7635   54.5036 C.ar    1  ZINC000767361237   -0.0800
      6 C6        -13.1888   -2.0309   53.3655 C.3     1  ZINC000767361237   -0.0800
      7 H7        -13.1427   -0.9574   53.5486 H       1  ZINC000767361237    0.0900
      8 C8        -14.6513   -2.4679   53.2603 C.3     1  ZINC000767361237   -0.1500
      9 C9        -12.4639   -2.3569   52.0583 C.3     1  ZINC000767361237    0.1300
     10 H10       -13.1818   -2.3704   51.2381 H       1  ZINC000767361237    0.1400
     11 O11       -11.8401   -3.6380   52.1662 O.3     1  ZINC000767361237   -0.5200
     12 C12       -11.4150   -1.3084   51.7905 C.2     1  ZINC000767361237    0.4300
     13 O13       -11.7454   -0.1941   51.4601 O.2     1  ZINC000767361237   -0.5000
     14 O14       -10.1139   -1.6123   51.9192 O.3     1  ZINC000767361237   -0.3300
     15 C15        -9.2263   -0.5442   52.3432 C.3     1  ZINC000767361237    0.0100
     16 C16        -7.8150   -0.8688   51.9263 C.2     1  ZINC000767361237    0.3700
     17 O17        -7.6058   -1.7781   51.1596 O.2     1  ZINC000767361237   -0.4200
     18 C18        -6.6647   -0.0587   52.4662 C.3     1  ZINC000767361237   -0.1800
     19 C19        -6.3097    1.0486   51.4718 C.3     1  ZINC000767361237    0.1200
     20 N20        -5.3411    1.9620   52.0833 N.am    1  ZINC000767361237   -0.5800
     21 C21        -5.6607    2.9459   52.9432 C.2     1  ZINC000767361237    0.5700
     22 O22        -6.7804    3.2137   53.3297 O.2     1  ZINC000767361237   -0.4600
     23 C23        -4.4206    3.6460   53.3397 C.ar    1  ZINC000767361237   -0.1400
     24 C24        -4.1371    4.7117   54.1781 C.ar    1  ZINC000767361237   -0.0400
     25 C25        -2.8255    5.1338   54.3338 C.ar    1  ZINC000767361237   -0.0900
     26 C26        -1.8006    4.4988   53.6586 C.ar    1  ZINC000767361237   -0.0900
     27 C27        -2.0694    3.4309   52.8162 C.ar    1  ZINC000767361237   -0.0400
     28 C28        -3.3750    2.9983   52.6509 C.ar    1  ZINC000767361237   -0.1400
     29 C29        -4.0146    1.9234   51.8633 C.2     1  ZINC000767361237    0.5700
     30 O30        -3.4390    1.1380   51.1373 O.2     1  ZINC000767361237   -0.4600
     31 C31       -12.9989   -4.0016   54.8969 C.ar    1  ZINC000767361237   -0.1100
     32 C32       -12.3891   -4.6752   55.9387 C.ar    1  ZINC000767361237   -0.1200
     33 H33        -9.8486   -5.4682   57.3415 H       1  ZINC000767361237    0.0700
     34 H34       -10.2351   -4.1180   58.4351 H       1  ZINC000767361237    0.0700
     35 H35       -11.3855   -5.4622   58.2394 H       1  ZINC000767361237    0.0700
     36 H36        -9.9939   -2.4276   56.7063 H       1  ZINC000767361237    0.1200
     37 H37       -11.0762   -1.2306   54.8464 H       1  ZINC000767361237    0.1200
     38 H38       -15.1306   -1.9380   52.4371 H       1  ZINC000767361237    0.0800
     39 H39       -14.6975   -3.5415   53.0772 H       1  ZINC000767361237    0.0700
     40 H40       -15.1679   -2.2356   54.1917 H       1  ZINC000767361237    0.0600
     41 H41       -11.7209   -4.0900   51.3197 H       1  ZINC000767361237    0.3900
     42 H42        -9.5364    0.3918   51.8785 H       1  ZINC000767361237    0.1100
     43 H43        -9.2709   -0.4438   53.4276 H       1  ZINC000767361237    0.1100
     44 H44        -6.9498    0.3867   53.4193 H       1  ZINC000767361237    0.1100
     45 H45        -5.8006   -0.7069   52.6120 H       1  ZINC000767361237    0.1100
     46 H46        -5.8759    0.6063   50.5751 H       1  ZINC000767361237    0.1100
     47 H47        -7.2111    1.6003   51.2053 H       1  ZINC000767361237    0.1100
     48 H48        -4.9342    5.2118   54.7080 H       1  ZINC000767361237    0.1400
     49 H49        -2.6036    5.9646   54.9869 H       1  ZINC000767361237    0.1400
     50 H50        -0.7830    4.8370   53.7878 H       1  ZINC000767361237    0.1400
     51 H51        -1.2643    2.9382   52.2913 H       1  ZINC000767361237    0.1400
     52 H52       -13.8430   -4.4438   54.3886 H       1  ZINC000767361237    0.1200
     53 H53       -12.7583   -5.6425   56.2460 H       1  ZINC000767361237    0.1200
@<TRIPOS>BOND
     1     1     2    1
     2     1    33    1
     3     1    34    1
     4     1    35    1
     5     2    32   ar
     6     2     3   ar
     7     3     4   ar
     8     3    36    1
     9     4     5   ar
    10     4    37    1
    11     5     6    1
    12     5    31   ar
    13     6     7    1
    14     6     8    1
    15     6     9    1
    16     8    38    1
    17     8    39    1
    18     8    40    1
    19     9    10    1
    20     9    11    1
    21     9    12    1
    22    11    41    1
    23    12    13    2
    24    12    14    1
    25    14    15    1
    26    15    16    1
    27    15    42    1
    28    15    43    1
    29    16    17    2
    30    16    18    1
    31    18    19    1
    32    18    44    1
    33    18    45    1
    34    19    20    1
    35    19    46    1
    36    19    47    1
    37    20    29   am
    38    20    21   am
    39    21    22    2
    40    21    23    1
    41    23    28   ar
    42    23    24   ar
    43    24    25   ar
    44    24    48    1
    45    25    26   ar
    46    25    49    1
    47    26    27   ar
    48    26    50    1
    49    27    28   ar
    50    27    51    1
    51    28    29    1
    52    29    30    2
    53    31    32   ar
    54    31    52    1
    55    32    53    1
@<TRIPOS>SUBSTRUCTURE
     1 ZINC000767361237        1 TEMP              0 ****  ****    0 ROOT


##########                                Name:    ZINC000110375116
##########                DOCK_Rotatable_Bonds:                  10
##########                         Heavy_Atoms:                  27
##########                    Molecular_Weight:             396.511
##########                DOCK_Rotatable_Bonds:                  10
##########                       Formal_Charge:        -2.23517e-07
##########                     HBond_Acceptors:                   9
##########                        HBond_Donors:                   0
##########                         Heavy_Atoms:                  27
##########                          Grid_Score:          -37.224998
##########                     Grid_vdw_energy:          -36.872971
##########                      Grid_es_energy:           -0.352027
##########           Internal_energy_repulsive:           23.150238

@<TRIPOS>MOLECULE
ZINC000110375116
 55 56 1 0 0
SMALL
USER_CHARGES


@<TRIPOS>ATOM
      1 C1         -3.8306    3.8726   54.4644 C.3     1  ZINC000110375116   -0.1700
      2 C2         -4.0440    4.0215   52.9566 C.3     1  ZINC000110375116    0.1000
      3 N3         -3.4841    2.8567   52.2668 N.am    1  ZINC000110375116   -0.6200
      4 C4         -2.0667    2.8356   51.8972 C.3     1  ZINC000110375116    0.1100
      5 C5         -1.9274    3.0946   50.3957 C.3     1  ZINC000110375116   -0.1700
      6 C6         -4.2731    1.8044   51.9722 C.2     1  ZINC000110375116    0.5100
      7 O7         -3.8092    0.8395   51.4024 O.2     1  ZINC000110375116   -0.5300
      8 C8         -5.7316    1.8269   52.3508 C.3     1  ZINC000110375116   -0.1400
      9 C9         -6.3139    0.4180   52.2210 C.3     1  ZINC000110375116   -0.0900
     10 C10        -7.7712    0.4235   52.6871 C.3     1  ZINC000110375116   -0.1400
     11 C11        -8.4060   -0.9052   52.3670 C.2     1  ZINC000110375116    0.5200
     12 O12        -7.7198   -1.8281   51.9820 O.2     1  ZINC000110375116   -0.5300
     13 N13        -9.7365   -1.0680   52.5084 N.am    1  ZINC000110375116   -0.6200
     14 C14       -10.3685   -2.3593   52.2041 C.3     1  ZINC000110375116    0.0900
     15 C15       -11.1560   -2.8220   53.4362 C.3     1  ZINC000110375116    0.1000
     16 N16       -12.0005   -1.7114   53.8980 N.am    1  ZINC000110375116   -1.0000
     17 S17       -13.6350   -1.9117   54.0728 S.o2    1  ZINC000110375116    2.7000
     18 O18       -14.1239   -0.7188   54.6704 O.2     1  ZINC000110375116   -0.9400
     19 O19       -14.1131   -2.4116   52.8316 O.2     1  ZINC000110375116   -0.9500
     20 C20       -13.8798   -3.1962   55.2539 C.ar    1  ZINC000110375116   -0.7400
     21 C21       -14.1482   -2.8895   56.5789 C.ar    1  ZINC000110375116    0.0200
     22 C22       -14.3343   -3.9328   57.4732 C.ar    1  ZINC000110375116   -0.1900
     23 C23       -14.2466   -5.2343   57.0172 C.ar    1  ZINC000110375116    0.1500
     24 N24       -13.9895   -5.4889   55.7491 N.ar    1  ZINC000110375116   -0.4900
     25 C25       -13.8122   -4.5224   54.8698 C.ar    1  ZINC000110375116    0.2000
     26 C26       -11.3684   -0.4200   54.2023 C.3     1  ZINC000110375116    0.1000
     27 C27       -10.5802    0.0410   52.9756 C.3     1  ZINC000110375116    0.1000
     28 H28        -4.2471    4.7393   54.9777 H       1  ZINC000110375116    0.0700
     29 H29        -4.3291    2.9688   54.8144 H       1  ZINC000110375116    0.0600
     30 H30        -2.7634    3.8037   54.6753 H       1  ZINC000110375116    0.0600
     31 H31        -5.1112    4.0904   52.7458 H       1  ZINC000110375116    0.0800
     32 H32        -3.5454    4.9254   52.6067 H       1  ZINC000110375116    0.0800
     33 H33        -1.5354    3.6101   52.4502 H       1  ZINC000110375116    0.0800
     34 H34        -1.6427    1.8610   52.1387 H       1  ZINC000110375116    0.0800
     35 H35        -0.8728    3.0790   50.1206 H       1  ZINC000110375116    0.0700
     36 H36        -2.4586    2.3201   49.8425 H       1  ZINC000110375116    0.0500
     37 H37        -2.3514    4.0693   50.1542 H       1  ZINC000110375116    0.0600
     38 H38        -5.8345    2.1690   53.3806 H       1  ZINC000110375116    0.0900
     39 H39        -6.2688    2.5046   51.6873 H       1  ZINC000110375116    0.0900
     40 H40        -6.2668    0.1000   51.1795 H       1  ZINC000110375116    0.0800
     41 H41        -5.7378   -0.2716   52.8379 H       1  ZINC000110375116    0.0800
     42 H42        -7.8079    0.5939   53.7630 H       1  ZINC000110375116    0.1000
     43 H43        -8.3135    1.2182   52.1746 H       1  ZINC000110375116    0.1000
     44 H44       -11.0466   -2.2445   51.3585 H       1  ZINC000110375116    0.0800
     45 H45        -9.6007   -3.0947   51.9633 H       1  ZINC000110375116    0.1000
     46 H46       -11.7834   -3.6729   53.1711 H       1  ZINC000110375116    0.1100
     47 H47       -10.4628   -3.1079   54.2273 H       1  ZINC000110375116    0.0800
     48 H48       -14.2107   -1.8624   56.9069 H       1  ZINC000110375116    0.1500
     49 H49       -14.5448   -3.7308   58.5130 H       1  ZINC000110375116    0.1500
     50 H50       -14.3898   -6.0525   57.7075 H       1  ZINC000110375116    0.1700
     51 H51       -13.6033   -4.7696   53.8395 H       1  ZINC000110375116    0.1700
     52 H52       -12.1362    0.3154   54.4432 H       1  ZINC000110375116    0.1100
     53 H53       -10.6904   -0.5349   55.0480 H       1  ZINC000110375116    0.0800
     54 H54        -9.9533    0.8919   53.2422 H       1  ZINC000110375116    0.1100
     55 H55       -11.2714    0.3268   52.1827 H       1  ZINC000110375116    0.0800
@<TRIPOS>BOND
     1     1     2    1
     2     1    28    1
     3     1    29    1
     4     1    30    1
     5     2     3    1
     6     2    31    1
     7     2    32    1
     8     3     4    1
     9     3     6   am
    10     4     5    1
    11     4    33    1
    12     4    34    1
    13     5    35    1
    14     5    36    1
    15     5    37    1
    16     6     7    2
    17     6     8    1
    18     8     9    1
    19     8    38    1
    20     8    39    1
    21     9    10    1
    22     9    40    1
    23     9    41    1
    24    10    11    1
    25    10    42    1
    26    10    43    1
    27    11    12    2
    28    11    13   am
    29    13    27    1
    30    13    14    1
    31    14    15    1
    32    14    44    1
    33    14    45    1
    34    15    16    1
    35    15    46    1
    36    15    47    1
    37    16    17   am
    38    16    26    1
    39    17    18    2
    40    17    19    2
    41    17    20    1
    42    20    25   ar
    43    20    21   ar
    44    21    22   ar
    45    21    48    1
    46    22    23   ar
    47    22    49    1
    48    23    24   ar
    49    23    50    1
    50    24    25   ar
    51    25    51    1
    52    26    27    1
    53    26    52    1
    54    26    53    1
    55    27    54    1
    56    27    55    1
@<TRIPOS>SUBSTRUCTURE
     1 ZINC000110375116        1 TEMP              0 ****  ****    0 ROOT


##########                                Name:    ZINC001574157642
##########                DOCK_Rotatable_Bonds:                   9
##########                         Heavy_Atoms:                  28
##########                    Molecular_Weight:             387.445
##########                DOCK_Rotatable_Bonds:                   9
##########                       Formal_Charge:          -0.0400004
##########                     HBond_Acceptors:                  11
##########                        HBond_Donors:                   4
##########                         Heavy_Atoms:                  28
##########                          Grid_Score:          -37.042347
##########                     Grid_vdw_energy:          -36.605045
##########                      Grid_es_energy:           -0.437300
##########           Internal_energy_repulsive:           10.979615

@<TRIPOS>MOLECULE
ZINC001574157642
 53 55 1 0 0
SMALL
USER_CHARGES


@<TRIPOS>ATOM
      1 C1         -1.4275    5.8793   50.2765 C.3     1  ZINC001574157642   -0.1400
      2 C2         -0.4622    4.9507   51.0161 C.3     1  ZINC001574157642   -0.0900
      3 C3          0.3666    5.7649   52.0115 C.3     1  ZINC001574157642   -0.1500
      4 C4         -1.2581    3.8824   51.7686 C.3     1  ZINC001574157642   -0.1300
      5 C5         -1.8290    2.8737   50.7697 C.3     1  ZINC001574157642    0.1300
      6 H6         -2.4531    3.3947   50.0437 H       1  ZINC001574157642    0.1100
      7 C7         -2.6717    1.8377   51.5164 C.3     1  ZINC001574157642    0.1100
      8 N8         -3.9542    2.4344   51.8974 N.pl3   1  ZINC001574157642   -0.7100
      9 C9         -5.0851    1.6356   52.0130 C.ar    1  ZINC001574157642    0.3700
     10 C10        -6.2996    2.1994   52.4000 C.ar    1  ZINC001574157642    0.0000
     11 N11        -7.3729    1.4421   52.5103 N.ar    1  ZINC001574157642   -0.3700
     12 C12        -7.2970    0.1395   52.2518 C.ar    1  ZINC001574157642    0.0800
     13 C13        -8.5051   -0.7133   52.3754 C.2     1  ZINC001574157642    0.2300
     14 N14        -9.7144   -0.3200   52.7240 N.2     1  ZINC001574157642   -0.2700
     15 N15       -10.4834   -1.3540   52.7135 N.pl3   1  ZINC001574157642   -0.2300
     16 N16        -9.8003   -2.3896   52.3697 N.2     1  ZINC001574157642   -0.0400
     17 N17        -8.5808   -2.0325   52.1487 N.2     1  ZINC001574157642   -0.2600
     18 C18        -6.0833   -0.4236   51.8646 C.ar    1  ZINC001574157642    0.1600
     19 N19        -5.0098    0.3368   51.7495 N.ar    1  ZINC001574157642   -0.5000
     20 N20        -0.7299    2.1996   50.0743 N.am    1  ZINC001574157642   -0.7300
     21 C21        -0.8866    1.7965   48.7978 C.2     1  ZINC001574157642    0.5200
     22 O22        -1.9380    1.9906   48.2253 O.2     1  ZINC001574157642   -0.5100
     23 C23         0.2447    1.1047   48.0818 C.3     1  ZINC001574157642   -0.1300
     24 H24         0.9071    0.6372   48.8103 H       1  ZINC001574157642    0.1100
     25 C25         1.0312    2.1275   47.2532 C.3     1  ZINC001574157642   -0.1000
     26 C26         2.2746    1.4375   46.6864 C.3     1  ZINC001574157642   -0.1400
     27 C27         1.8887    0.1360   46.0445 C.2     1  ZINC001574157642    0.5200
     28 O28         2.6718   -0.3785   45.2743 O.2     1  ZINC001574157642   -0.5500
     29 N29         0.7315   -0.4848   46.2763 N.am    1  ZINC001574157642   -0.7200
     30 C30        -0.3189    0.0378   47.1423 C.3     1  ZINC001574157642    0.1200
     31 H31        -2.0917    6.3597   50.9949 H       1  ZINC001574157642    0.0400
     32 H32        -0.8605    6.6403   49.7404 H       1  ZINC001574157642    0.0500
     33 H33        -2.0180    5.2993   49.5673 H       1  ZINC001574157642    0.0700
     34 H34         0.2019    4.4702   50.2976 H       1  ZINC001574157642    0.0700
     35 H35        -0.2976    6.2453   52.7300 H       1  ZINC001574157642    0.0500
     36 H36         1.0543    5.1034   52.5384 H       1  ZINC001574157642    0.0500
     37 H37         0.9335    6.5259   51.4754 H       1  ZINC001574157642    0.0500
     38 H38        -0.6019    3.3674   52.4701 H       1  ZINC001574157642    0.0700
     39 H39        -2.0746    4.3549   52.3146 H       1  ZINC001574157642    0.0800
     40 H40        -2.8486    0.9786   50.8693 H       1  ZINC001574157642    0.0800
     41 H41        -2.1408    1.5148   52.4120 H       1  ZINC001574157642    0.0900
     42 H42        -4.0140    3.3873   52.0690 H       1  ZINC001574157642    0.4100
     43 H43        -6.3613    3.2571   52.6099 H       1  ZINC001574157642    0.1700
     44 H44       -11.4287   -1.3524   52.9312 H       1  ZINC001574157642    0.4800
     45 H45        -6.0211   -1.4813   51.6549 H       1  ZINC001574157642    0.1800
     46 H46         0.1107    2.0433   50.5325 H       1  ZINC001574157642    0.4000
     47 H47         0.4098    2.4933   46.4358 H       1  ZINC001574157642    0.0800
     48 H48         1.3314    2.9611   47.8881 H       1  ZINC001574157642    0.0900
     49 H49         2.7401    2.0842   45.9426 H       1  ZINC001574157642    0.1100
     50 H50         2.9826    1.2475   47.4932 H       1  ZINC001574157642    0.1000
     51 H51         0.5792   -1.3392   45.8433 H       1  ZINC001574157642    0.4000
     52 H52        -0.7416   -0.7782   47.7285 H       1  ZINC001574157642    0.0800
     53 H53        -1.1037    0.4811   46.5294 H       1  ZINC001574157642    0.0700
@<TRIPOS>BOND
     1     1     2    1
     2     1    31    1
     3     1    32    1
     4     1    33    1
     5     2     3    1
     6     2     4    1
     7     2    34    1
     8     3    35    1
     9     3    36    1
    10     3    37    1
    11     4     5    1
    12     4    38    1
    13     4    39    1
    14     5     6    1
    15     5     7    1
    16     5    20    1
    17     7     8    1
    18     7    40    1
    19     7    41    1
    20     8     9    1
    21     8    42    1
    22     9    19   ar
    23     9    10   ar
    24    10    11   ar
    25    10    43    1
    26    11    12   ar
    27    12    13    1
    28    12    18   ar
    29    13    17    1
    30    13    14    2
    31    14    15    1
    32    15    16    1
    33    15    44    1
    34    16    17    2
    35    18    19   ar
    36    18    45    1
    37    20    21   am
    38    20    46    1
    39    21    22    2
    40    21    23    1
    41    23    24    1
    42    23    30    1
    43    23    25    1
    44    25    26    1
    45    25    47    1
    46    25    48    1
    47    26    27    1
    48    26    49    1
    49    26    50    1
    50    27    28    2
    51    27    29   am
    52    29    30    1
    53    29    51    1
    54    30    52    1
    55    30    53    1
@<TRIPOS>SUBSTRUCTURE
     1 ZINC001574157642        1 TEMP              0 ****  ****    0 ROOT


##########                                Name:    ZINC000011620562
##########                DOCK_Rotatable_Bonds:                   9
##########                         Heavy_Atoms:                  29
##########                    Molecular_Weight:             417.448
##########                DOCK_Rotatable_Bonds:                   9
##########                       Formal_Charge:           0.0299999
##########                     HBond_Acceptors:                  12
##########                        HBond_Donors:                   1
##########                         Heavy_Atoms:                  29
##########                          Grid_Score:          -36.948170
##########                     Grid_vdw_energy:          -35.044395
##########                      Grid_es_energy:           -1.903776
##########           Internal_energy_repulsive:            7.290312

@<TRIPOS>MOLECULE
ZINC000011620562
 48 50 1 0 0
SMALL
USER_CHARGES


@<TRIPOS>ATOM
      1 C1        -14.7846    0.8129   62.9804 C.3     1  ZINC000011620562    0.0400
      2 O2        -14.4542   -0.3373   62.1581 O.3     1  ZINC000011620562   -0.3500
      3 C3        -15.0131   -1.5097   62.4975 C.2     1  ZINC000011620562    0.4600
      4 O4        -15.7472   -1.5743   63.4549 O.2     1  ZINC000011620562   -0.5000
      5 C5        -14.7248   -2.7452   61.6843 C.3     1  ZINC000011620562    0.1300
      6 N6        -14.5511   -2.3744   60.2777 N.am    1  ZINC000011620562   -0.7200
      7 C7        -13.3133   -2.1896   59.7773 C.2     1  ZINC000011620562    0.5400
      8 O8        -12.3432   -2.3318   60.4913 O.2     1  ZINC000011620562   -0.5200
      9 C9        -13.1347   -1.8064   58.3309 C.3     1  ZINC000011620562   -0.1600
     10 S10       -14.6288   -2.2361   57.4041 S.3     1  ZINC000011620562    0.1400
     11 C11       -14.2068   -3.8652   56.8816 C.2     1  ZINC000011620562    0.2100
     12 N12       -14.5345   -4.9889   57.4828 N.2     1  ZINC000011620562   -0.3400
     13 N13       -14.0676   -5.9966   56.8381 N.2     1  ZINC000011620562   -0.0300
     14 N14       -13.4188   -5.6017   55.7966 N.2     1  ZINC000011620562   -0.0800
     15 N15       -13.4884   -4.1976   55.7813 N.pl3   1  ZINC000011620562   -0.2600
     16 C16       -12.9263   -3.3238   54.8309 C.2     1  ZINC000011620562   -0.1300
     17 C17       -13.5830   -2.7348   53.8059 C.2     1  ZINC000011620562    0.2500
     18 C18       -15.0456   -2.9015   53.4837 C.3     1  ZINC000011620562   -0.1100
     19 N19       -12.6926   -1.9613   53.1111 N.pl3   1  ZINC000011620562   -0.3700
     20 C20       -12.9978   -1.1537   51.9275 C.3     1  ZINC000011620562    0.0900
     21 N21       -11.4393   -2.0745   53.7268 N.am    1  ZINC000011620562   -0.3600
     22 C22       -10.2616   -1.4388   53.3213 C.ar    1  ZINC000011620562    0.1400
     23 C23        -9.9799   -0.1508   53.7584 C.ar    1  ZINC000011620562   -0.1300
     24 C24        -8.8157    0.4740   53.3565 C.ar    1  ZINC000011620562   -0.1000
     25 C25        -7.9309   -0.1813   52.5199 C.ar    1  ZINC000011620562   -0.1100
     26 C26        -8.2085   -1.4634   52.0826 C.ar    1  ZINC000011620562   -0.1000
     27 C27        -9.3682   -2.0961   52.4854 C.ar    1  ZINC000011620562   -0.1000
     28 C28       -11.5724   -2.9015   54.7836 C.2     1  ZINC000011620562    0.5500
     29 O29       -10.6890   -3.2321   55.5537 O.2     1  ZINC000011620562   -0.5000
     30 H30       -14.4729    0.6265   64.0081 H       1  ZINC000011620562    0.0700
     31 H31       -14.2679    1.6933   62.5980 H       1  ZINC000011620562    0.1100
     32 H32       -15.8609    0.9826   62.9522 H       1  ZINC000011620562    0.0700
     33 H33       -13.8131   -3.2170   62.0509 H       1  ZINC000011620562    0.1200
     34 H34       -15.5571   -3.4430   61.7760 H       1  ZINC000011620562    0.1200
     35 H35       -15.3269   -2.2620   59.7064 H       1  ZINC000011620562    0.4200
     36 H36       -12.9582   -0.7332   58.2584 H       1  ZINC000011620562    0.1400
     37 H37       -12.2822   -2.3437   57.9153 H       1  ZINC000011620562    0.1400
     38 H38       -15.5026   -3.5762   54.2076 H       1  ZINC000011620562    0.1000
     39 H39       -15.5404   -1.9313   53.5283 H       1  ZINC000011620562    0.1000
     40 H40       -15.1517   -3.3177   52.4818 H       1  ZINC000011620562    0.1000
     41 H41       -14.0449   -1.2881   51.6562 H       1  ZINC000011620562    0.1100
     42 H42       -12.8115   -0.1024   52.1471 H       1  ZINC000011620562    0.0900
     43 H43       -12.3643   -1.4697   51.0988 H       1  ZINC000011620562    0.0900
     44 H44       -10.6708    0.3616   54.4115 H       1  ZINC000011620562    0.1300
     45 H45        -8.5963    1.4757   53.6957 H       1  ZINC000011620562    0.1300
     46 H46        -7.0211    0.3096   52.2072 H       1  ZINC000011620562    0.1300
     47 H47        -7.5156   -1.9721   51.4287 H       1  ZINC000011620562    0.1400
     48 H48        -9.5842   -3.0976   52.1438 H       1  ZINC000011620562    0.1400
@<TRIPOS>BOND
     1     1     2    1
     2     1    30    1
     3     1    31    1
     4     1    32    1
     5     2     3    1
     6     3     4    2
     7     3     5    1
     8     5     6    1
     9     5    33    1
    10     5    34    1
    11     6     7   am
    12     6    35    1
    13     7     8    2
    14     7     9    1
    15     9    10    1
    16     9    36    1
    17     9    37    1
    18    10    11    1
    19    11    15    1
    20    11    12    2
    21    12    13    1
    22    13    14    2
    23    14    15    1
    24    15    16    1
    25    16    28    1
    26    16    17    2
    27    17    18    1
    28    17    19    1
    29    18    38    1
    30    18    39    1
    31    18    40    1
    32    19    20    1
    33    19    21    1
    34    20    41    1
    35    20    42    1
    36    20    43    1
    37    21    22    1
    38    21    28   am
    39    22    27   ar
    40    22    23   ar
    41    23    24   ar
    42    23    44    1
    43    24    25   ar
    44    24    45    1
    45    25    26   ar
    46    25    46    1
    47    26    27   ar
    48    26    47    1
    49    27    48    1
    50    28    29    2
@<TRIPOS>SUBSTRUCTURE
     1 ZINC000011620562        1 TEMP              0 ****  ****    0 ROOT


##########                                Name:    ZINC001596273020
##########                DOCK_Rotatable_Bonds:                  11
##########                         Heavy_Atoms:                  25
##########                    Molecular_Weight:             355.478
##########                DOCK_Rotatable_Bonds:                  11
##########                       Formal_Charge:          -0.0499996
##########                     HBond_Acceptors:                   7
##########                        HBond_Donors:                   2
##########                         Heavy_Atoms:                  25
##########                          Grid_Score:          -36.896629
##########                     Grid_vdw_energy:          -25.095476
##########                      Grid_es_energy:          -11.801153
##########           Internal_energy_repulsive:           24.787502

@<TRIPOS>MOLECULE
ZINC001596273020
 58 59 1 0 0
SMALL
USER_CHARGES


@<TRIPOS>ATOM
      1 C1         -1.0315    1.6301   59.4539 C.3     1  ZINC001596273020   -0.1900
      2 C2         -1.0202    1.5693   57.9251 C.3     1  ZINC001596273020   -0.0200
      3 N3         -1.7162    2.7439   57.3832 N.4     1  ZINC001596273020   -0.3900
      4 H4         -2.6420    2.7992   57.7806 H       1  ZINC001596273020    0.4300
      5 C5         -0.9640    3.9590   57.7233 C.3     1  ZINC001596273020   -0.0100
      6 C6          0.4577    3.8505   57.1686 C.3     1  ZINC001596273020   -0.1900
      7 C7         -1.8168    2.6229   55.9227 C.3     1  ZINC001596273020   -0.0100
      8 C8         -2.5432    3.8455   55.3583 C.3     1  ZINC001596273020    0.0300
      9 O9         -2.9672    3.5724   54.0213 O.3     1  ZINC001596273020   -0.3900
     10 C10        -1.8932    3.3545   53.1041 C.3     1  ZINC001596273020    0.0500
     11 C11        -2.4606    3.0882   51.7084 C.3     1  ZINC001596273020    0.1400
     12 N12        -1.4000    2.5703   50.8406 N.am    1  ZINC001596273020   -0.7500
     13 C13        -1.7125    2.0098   49.6554 C.2     1  ZINC001596273020    0.7200
     14 O14        -2.8749    1.9325   49.3072 O.2     1  ZINC001596273020   -0.6000
     15 N15        -0.7366    1.5348   48.8564 N.am    1  ZINC001596273020   -0.6300
     16 C16        -0.8821    0.8970   47.5246 C.3     1  ZINC001596273020    0.1100
     17 C17         0.2890    1.5038   46.6992 C.3     1  ZINC001596273020   -0.0800
     18 H18         0.6504    0.7699   45.9789 H       1  ZINC001596273020    0.1200
     19 C19        -0.2495    2.7169   45.9673 C.3     1  ZINC001596273020   -0.1000
     20 C20         0.8109    3.7825   45.7282 C.3     1  ZINC001596273020   -0.1200
     21 C21         1.3699    4.2114   47.0913 C.3     1  ZINC001596273020   -0.1200
     22 C22         2.1573    3.0344   47.6580 C.3     1  ZINC001596273020   -0.0800
     23 C23         1.3599    1.7750   47.7329 C.3     1  ZINC001596273020   -0.1400
     24 C24         2.3532    0.6521   47.5802 C.2     1  ZINC001596273020    0.5000
     25 O25         3.5148    0.8162   47.9125 O.co2   1  ZINC001596273020   -0.6900
     26 O26         1.9954   -0.4207   47.1242 O.co2   1  ZINC001596273020   -0.6900
     27 C27         0.7252    1.5376   49.1074 C.3     1  ZINC001596273020    0.1600
     28 H28        -0.4311    2.4760   59.7882 H       1  ZINC001596273020    0.0800
     29 H29        -2.0563    1.7504   59.8051 H       1  ZINC001596273020    0.0800
     30 H30        -0.6151    0.7070   59.8572 H       1  ZINC001596273020    0.1000
     31 H31         0.0102    1.5613   57.5694 H       1  ZINC001596273020    0.1300
     32 H32        -1.5260    0.6623   57.5938 H       1  ZINC001596273020    0.1300
     33 H33        -1.4590    4.8267   57.2874 H       1  ZINC001596273020    0.1300
     34 H34        -0.9237    4.0699   58.8069 H       1  ZINC001596273020    0.1300
     35 H35         0.9892    3.0510   57.6848 H       1  ZINC001596273020    0.0800
     36 H36         0.4157    3.6295   56.1021 H       1  ZINC001596273020    0.0800
     37 H37         0.9812    4.7941   57.3237 H       1  ZINC001596273020    0.1000
     38 H38        -0.8167    2.5641   55.4932 H       1  ZINC001596273020    0.1400
     39 H39        -2.3741    1.7206   55.6704 H       1  ZINC001596273020    0.1400
     40 H40        -3.4126    4.0691   55.9766 H       1  ZINC001596273020    0.1000
     41 H41        -1.8680    4.7011   55.3577 H       1  ZINC001596273020    0.0700
     42 H42        -1.2558    4.2382   53.0746 H       1  ZINC001596273020    0.0700
     43 H43        -1.3073    2.4945   53.4283 H       1  ZINC001596273020    0.0700
     44 H44        -3.2644    2.3553   51.7767 H       1  ZINC001596273020    0.0900
     45 H45        -2.8502    4.0169   51.2913 H       1  ZINC001596273020    0.0700
     46 H46        -0.4727    2.6310   51.1189 H       1  ZINC001596273020    0.3900
     47 H47        -0.7755   -0.1849   47.6036 H       1  ZINC001596273020    0.0700
     48 H48        -1.8416    1.1572   47.0775 H       1  ZINC001596273020    0.0600
     49 H49        -0.6500    2.3975   45.0052 H       1  ZINC001596273020    0.0500
     50 H50        -1.0580    3.1514   46.5551 H       1  ZINC001596273020    0.0400
     51 H51         1.6126    3.3729   45.1137 H       1  ZINC001596273020    0.0700
     52 H52         0.3637    4.6409   45.2269 H       1  ZINC001596273020    0.0500
     53 H53         2.0283    5.0712   46.9669 H       1  ZINC001596273020    0.0600
     54 H54         0.5505    4.4662   47.7634 H       1  ZINC001596273020    0.0500
     55 H55         3.0296    2.8610   47.0277 H       1  ZINC001596273020    0.0600
     56 H56         2.4989    3.2922   48.6605 H       1  ZINC001596273020    0.0600
     57 H57         0.9951    2.3399   49.7941 H       1  ZINC001596273020    0.0700
     58 H58         1.0365    0.5728   49.5080 H       1  ZINC001596273020    0.0700
@<TRIPOS>BOND
     1     1     2    1
     2     1    28    1
     3     1    29    1
     4     1    30    1
     5     2     3    1
     6     2    31    1
     7     2    32    1
     8     3     4    1
     9     3     5    1
    10     3     7    1
    11     5     6    1
    12     5    33    1
    13     5    34    1
    14     6    35    1
    15     6    36    1
    16     6    37    1
    17     7     8    1
    18     7    38    1
    19     7    39    1
    20     8     9    1
    21     8    40    1
    22     8    41    1
    23     9    10    1
    24    10    11    1
    25    10    42    1
    26    10    43    1
    27    11    12    1
    28    11    44    1
    29    11    45    1
    30    12    13   am
    31    12    46    1
    32    13    14    2
    33    13    15   am
    34    15    27    1
    35    15    16    1
    36    16    17    1
    37    16    47    1
    38    16    48    1
    39    17    18    1
    40    17    23    1
    41    17    19    1
    42    19    20    1
    43    19    49    1
    44    19    50    1
    45    20    21    1
    46    20    51    1
    47    20    52    1
    48    21    22    1
    49    21    53    1
    50    21    54    1
    51    22    23    1
    52    22    55    1
    53    22    56    1
    54    23    24    1
    55    23    27    1
    56    24    25   ar
    57    24    26   ar
    58    27    57    1
    59    27    58    1
@<TRIPOS>SUBSTRUCTURE
     1 ZINC001596273020        1 TEMP              0 ****  ****    0 ROOT


##########                                Name:     oleObject42.pdb
##########                DOCK_Rotatable_Bonds:                   9
##########                         Heavy_Atoms:                  36
##########                    Molecular_Weight:             527.493
##########                DOCK_Rotatable_Bonds:                   9
##########                       Formal_Charge:         9.99384e-05
##########                     HBond_Acceptors:                   8
##########                        HBond_Donors:                   0
##########                         Heavy_Atoms:                  36
##########                          Grid_Score:          -36.833164
##########                     Grid_vdw_energy:          -36.219883
##########                      Grid_es_energy:           -0.613281
##########           Internal_energy_repulsive:           54.130516

@<TRIPOS>MOLECULE
oleObject42.pdb
 68 71 1 0 0
SMALL
NO_CHARGES


@<TRIPOS>ATOM
      1 C           5.6267    1.0643   49.5363 C.ar    1  UNL        -0.0435
      2 C           5.7105    0.8037   48.1610 C.ar    1  UNL        -0.0559
      3 C           4.6471    1.1893   47.3231 C.ar    1  UNL        -0.0272
      4 C           3.5259    1.8299   47.9083 C.ar    1  UNL         0.0699
      5 N           3.4580    2.0754   49.2378 N.ar    1  UNL        -0.2586
      6 C           4.4801    1.7033   50.0306 C.ar    1  UNL         0.0272
      7 C           2.3234    2.2845   47.0637 C.3     1  UNL         0.1101
      8 C           1.2703    1.1781   46.8589 C.ar    1  UNL         0.0699
      9 C           0.0745    1.4224   46.1373 C.ar    1  UNL        -0.0272
     10 C          -0.8503    0.3706   45.9965 C.ar    1  UNL        -0.0559
     11 C          -0.5618   -0.8752   46.5716 C.ar    1  UNL        -0.0435
     12 C           0.6437   -1.0288   47.2718 C.ar    1  UNL         0.0272
     13 N           1.5335   -0.0289   47.4130 N.ar    1  UNL        -0.2586
     14 C          -0.2364    2.7789   45.5140 C.3     1  UNL        -0.0379
     15 N           1.7633    3.5892   47.5134 N.am    1  UNL        -0.2902
     16 C           0.9208    3.7129   48.6189 C.2     1  UNL         0.2180
     17 O           0.6998    4.8103   49.1042 O.2     1  UNL        -0.2772
     18 C           0.5730    2.4159   49.3898 C.3     1  UNL         0.0385
     19 C          -0.9215    2.0476   49.2275 C.3     1  UNL        -0.0289
     20 C          -1.8427    2.9590   50.0664 C.3     1  UNL        -0.0010
     21 N          -1.4536    2.9557   51.4932 N.4     1  UNL        -0.3010
     22 C          -0.0444    3.3385   51.7321 C.3     1  UNL        -0.0010
     23 C           0.9428    2.4903   50.8946 C.3     1  UNL        -0.0289
     24 C          -2.4213    3.6357   52.3825 C.3     1  UNL         0.0222
     25 C          -3.4789    2.6931   52.9991 C.3     1  UNL         0.0661
     26 O          -4.6831    2.8170   52.2263 O.3     1  UNL        -0.3432
     27 C          -5.6097    1.8046   52.2718 C.ar    1  UNL         0.0937
     28 C          -5.2707    0.5451   51.7491 C.ar    1  UNL        -0.0288
     29 C          -6.2037   -0.5045   51.7827 C.ar    1  UNL        -0.0408
     30 C          -7.4772   -0.2921   52.3367 C.ar    1  UNL         0.0422
     31 C          -7.8209    0.9676   52.8553 C.ar    1  UNL        -0.0221
     32 C          -6.8891    2.0187   52.8229 C.ar    1  UNL         0.0723
     33 CL         -7.3445    3.5830   53.4722 Cl      1  UNL        -0.0814
     34 CL         -8.6401   -1.6000   52.3783 Cl      1  UNL        -0.0843
     35 C           2.0072    4.7487   46.6320 C.3     1  UNL         0.0038
     36 C           4.7371    0.9104   45.8267 C.3     1  UNL        -0.0379
     37 H           6.4331    0.7787   50.2053 H       1  UNL         0.0639
     38 H           6.5891    0.3112   47.7538 H       1  UNL         0.0627
     39 H           4.3759    1.9251   51.0920 H       1  UNL         0.0840
     40 H           2.7319    2.4730   46.0675 H       1  UNL         0.0643
     41 H          -1.7778    0.5148   45.4496 H       1  UNL         0.0627
     42 H          -1.2566   -1.7044   46.4773 H       1  UNL         0.0639
     43 H           0.9062   -1.9798   47.7337 H       1  UNL         0.0840
     44 H          -0.3355    3.5542   46.2837 H       1  UNL         0.0280
     45 H          -1.1766    2.7573   44.9490 H       1  UNL         0.0280
     46 H           0.5534    3.0871   44.8179 H       1  UNL         0.0280
     47 H           1.1671    1.5957   48.9740 H       1  UNL         0.0402
     48 H          -1.0697    1.0083   49.5480 H       1  UNL         0.0288
     49 H          -1.2156    2.0961   48.1723 H       1  UNL         0.0288
     50 H          -2.8769    2.6065   49.9613 H       1  UNL         0.0431
     51 H          -1.7951    3.9792   49.6646 H       1  UNL         0.0431
     52 H           0.1994    3.2111   52.7947 H       1  UNL         0.0431
     53 H           0.1011    4.3978   51.4902 H       1  UNL         0.0431
     54 H           0.9489    1.4711   51.3023 H       1  UNL         0.0288
     55 H           1.9625    2.8789   51.0122 H       1  UNL         0.0288
     56 H          -2.9403    4.4221   51.8197 H       1  UNL         0.0455
     57 H          -1.8771    4.1289   53.1981 H       1  UNL         0.0455
     58 H          -3.6724    2.9744   54.0415 H       1  UNL         0.0586
     59 H          -3.1231    1.6557   52.9756 H       1  UNL         0.0586
     60 H          -4.2861    0.3842   51.3198 H       1  UNL         0.0652
     61 H          -5.9399   -1.4783   51.3797 H       1  UNL         0.0639
     62 H          -8.8075    1.1292   53.2803 H       1  UNL         0.0655
     63 H           2.9702    4.6459   46.1164 H       1  UNL         0.0433
     64 H           2.0303    5.6719   47.2248 H       1  UNL         0.0433
     65 H           1.2050    4.8214   45.8871 H       1  UNL         0.0433
     66 H           5.6944    0.4458   45.5596 H       1  UNL         0.0280
     67 H           4.6525    1.8356   45.2438 H       1  UNL         0.0280
     68 H           3.9421    0.2276   45.5033 H       1  UNL         0.0280
@<TRIPOS>BOND
     1     1     2   ar
     2     1     6   ar
     3     1    37    1
     4     2     3   ar
     5     2    38    1
     6     3     4   ar
     7     3    36    1
     8     4     5   ar
     9     4     7    1
    10     5     6   ar
    11     6    39    1
    12     7     8    1
    13     7    15    1
    14     7    40    1
    15     8     9   ar
    16     8    13   ar
    17     9    10   ar
    18     9    14    1
    19    10    11   ar
    20    10    41    1
    21    11    12   ar
    22    11    42    1
    23    12    13   ar
    24    12    43    1
    25    14    44    1
    26    14    45    1
    27    14    46    1
    28    15    16   am
    29    15    35    1
    30    16    17    2
    31    16    18    1
    32    18    19    1
    33    18    23    1
    34    18    47    1
    35    19    20    1
    36    19    48    1
    37    19    49    1
    38    20    21    1
    39    20    50    1
    40    20    51    1
    41    21    22    1
    42    21    24    1
    43    22    23    1
    44    22    52    1
    45    22    53    1
    46    23    54    1
    47    23    55    1
    48    24    25    1
    49    24    56    1
    50    24    57    1
    51    25    26    1
    52    25    58    1
    53    25    59    1
    54    26    27    1
    55    27    28   ar
    56    27    32   ar
    57    28    29   ar
    58    28    60    1
    59    29    30   ar
    60    29    61    1
    61    30    31   ar
    62    30    34    1
    63    31    32   ar
    64    31    62    1
    65    32    33    1
    66    35    63    1
    67    35    64    1
    68    35    65    1
    69    36    66    1
    70    36    67    1
    71    36    68    1
@<TRIPOS>SUBSTRUCTURE
     1 UNL         1 TEMP              0 ****  ****    0 ROOT


##########                                Name:    ZINC000004598904
##########                DOCK_Rotatable_Bonds:                  13
##########                         Heavy_Atoms:                  30
##########                    Molecular_Weight:             412.442
##########                DOCK_Rotatable_Bonds:                  13
##########                       Formal_Charge:          -0.0300005
##########                     HBond_Acceptors:                   8
##########                        HBond_Donors:                   2
##########                         Heavy_Atoms:                  30
##########                          Grid_Score:          -36.776840
##########                     Grid_vdw_energy:          -36.651585
##########                      Grid_es_energy:           -0.125254
##########           Internal_energy_repulsive:           15.262882

@<TRIPOS>MOLECULE
ZINC000004598904
 54 55 1 0 0
SMALL
USER_CHARGES


@<TRIPOS>ATOM
      1 C1        -14.4202   -1.4683   61.4414 C.3     1  ZINC000004598904   -0.1500
      2 C2        -14.9709   -2.8824   61.2462 C.3     1  ZINC000004598904    0.0600
      3 O3        -16.3533   -2.8073   60.8086 O.3     1  ZINC000004598904   -0.3500
      4 C4        -16.5727   -2.4062   59.5410 C.2     1  ZINC000004598904    0.5100
      5 O5        -17.6348   -1.8986   59.2397 O.2     1  ZINC000004598904   -0.5100
      6 C6        -15.5241   -2.5836   58.5195 C.ar    1  ZINC000004598904   -0.1500
      7 C7        -15.1836   -3.8665   58.0803 C.ar    1  ZINC000004598904   -0.0400
      8 C8        -14.2042   -4.0281   57.1267 C.ar    1  ZINC000004598904   -0.1400
      9 C9        -13.5533   -2.9167   56.6000 C.ar    1  ZINC000004598904    0.1800
     10 N10       -12.5621   -3.0843   55.6340 N.am    1  ZINC000004598904   -0.6700
     11 C11       -12.8373   -3.7494   54.4945 C.2     1  ZINC000004598904    0.5200
     12 O12       -13.9472   -4.2019   54.3094 O.2     1  ZINC000004598904   -0.5100
     13 C13       -11.7659   -3.9305   53.4503 C.3     1  ZINC000004598904   -0.1300
     14 C14       -11.7831   -2.7396   52.4900 C.3     1  ZINC000004598904   -0.1300
     15 C15       -10.5138   -1.9438   52.6537 C.2     1  ZINC000004598904    0.5200
     16 O16       -10.0340   -1.7877   53.7566 O.2     1  ZINC000004598904   -0.5100
     17 N17        -9.9118   -1.4057   51.5746 N.am    1  ZINC000004598904   -0.6700
     18 C18        -8.7376   -0.6696   51.7261 C.ar    1  ZINC000004598904    0.1800
     19 C19        -8.7974    0.6507   52.1613 C.ar    1  ZINC000004598904   -0.1400
     20 C20        -7.6401    1.3805   52.3120 C.ar    1  ZINC000004598904   -0.0300
     21 C21        -6.4035    0.7934   52.0278 C.ar    1  ZINC000004598904   -0.1500
     22 C22        -5.1615    1.5719   52.1885 C.2     1  ZINC000004598904    0.5100
     23 O23        -4.1042    1.1158   51.8007 O.2     1  ZINC000004598904   -0.5100
     24 O24        -5.1990    2.7891   52.7654 O.3     1  ZINC000004598904   -0.3600
     25 C25        -3.9276    3.3768   53.1479 C.3     1  ZINC000004598904    0.0600
     26 C26        -4.1568    4.8013   53.6571 C.3     1  ZINC000004598904   -0.1500
     27 C27        -6.3472   -0.5335   51.5912 C.ar    1  ZINC000004598904   -0.0400
     28 C28        -7.5082   -1.2588   51.4473 C.ar    1  ZINC000004598904   -0.1600
     29 C29       -13.8896   -1.6385   57.0348 C.ar    1  ZINC000004598904   -0.1600
     30 C30       -14.8720   -1.4688   57.9839 C.ar    1  ZINC000004598904   -0.0300
     31 H31       -15.0121   -0.9487   62.1949 H       1  ZINC000004598904    0.0700
     32 H32       -13.3823   -1.5247   61.7699 H       1  ZINC000004598904    0.0800
     33 H33       -14.4738   -0.9243   60.4985 H       1  ZINC000004598904    0.0700
     34 H34       -14.3789   -3.4020   60.4927 H       1  ZINC000004598904    0.0700
     35 H35       -14.9173   -3.4265   62.1892 H       1  ZINC000004598904    0.0700
     36 H36       -15.6881   -4.7295   58.4890 H       1  ZINC000004598904    0.1400
     37 H37       -13.9403   -5.0188   56.7872 H       1  ZINC000004598904    0.1400
     38 H38       -11.6745   -2.7224   55.7821 H       1  ZINC000004598904    0.4200
     39 H39       -10.7920   -3.9917   53.9359 H       1  ZINC000004598904    0.1100
     40 H40       -11.9527   -4.8489   52.8936 H       1  ZINC000004598904    0.1100
     41 H41       -11.8556   -3.1010   51.4643 H       1  ZINC000004598904    0.1100
     42 H42       -12.6409   -2.1052   52.7132 H       1  ZINC000004598904    0.1100
     43 H43       -10.2956   -1.5307   50.6926 H       1  ZINC000004598904    0.4200
     44 H44        -9.7530    1.1036   52.3807 H       1  ZINC000004598904    0.1400
     45 H45        -7.6873    2.4054   52.6491 H       1  ZINC000004598904    0.1400
     46 H46        -3.4731    2.7777   53.9369 H       1  ZINC000004598904    0.0700
     47 H47        -3.2644    3.4024   52.2833 H       1  ZINC000004598904    0.0700
     48 H48        -3.2024    5.2424   53.9443 H       1  ZINC000004598904    0.0800
     49 H49        -4.6113    5.4004   52.8680 H       1  ZINC000004598904    0.0700
     50 H50        -4.8201    4.7757   54.5217 H       1  ZINC000004598904    0.0700
     51 H51        -5.3938   -0.9901   51.3704 H       1  ZINC000004598904    0.1400
     52 H52        -7.4656   -2.2841   51.1105 H       1  ZINC000004598904    0.1400
     53 H53       -13.3824   -0.7781   56.6239 H       1  ZINC000004598904    0.1400
     54 H54       -15.1325   -0.4765   58.3210 H       1  ZINC000004598904    0.1400
@<TRIPOS>BOND
     1     1     2    1
     2     1    31    1
     3     1    32    1
     4     1    33    1
     5     2     3    1
     6     2    34    1
     7     2    35    1
     8     3     4    1
     9     4     5    2
    10     4     6    1
    11     6    30   ar
    12     6     7   ar
    13     7     8   ar
    14     7    36    1
    15     8     9   ar
    16     8    37    1
    17     9    10    1
    18     9    29   ar
    19    10    11   am
    20    10    38    1
    21    11    12    2
    22    11    13    1
    23    13    14    1
    24    13    39    1
    25    13    40    1
    26    14    15    1
    27    14    41    1
    28    14    42    1
    29    15    16    2
    30    15    17   am
    31    17    18    1
    32    17    43    1
    33    18    28   ar
    34    18    19   ar
    35    19    20   ar
    36    19    44    1
    37    20    21   ar
    38    20    45    1
    39    21    22    1
    40    21    27   ar
    41    22    23    2
    42    22    24    1
    43    24    25    1
    44    25    26    1
    45    25    46    1
    46    25    47    1
    47    26    48    1
    48    26    49    1
    49    26    50    1
    50    27    28   ar
    51    27    51    1
    52    28    52    1
    53    29    30   ar
    54    29    53    1
    55    30    54    1
@<TRIPOS>SUBSTRUCTURE
     1 ZINC000004598904        1 TEMP              0 ****  ****    0 ROOT


##########                                Name:    ZINC000464139057
##########                DOCK_Rotatable_Bonds:                   9
##########                         Heavy_Atoms:                  30
##########                    Molecular_Weight:              413.56
##########                DOCK_Rotatable_Bonds:                   9
##########                       Formal_Charge:         2.38419e-07
##########                     HBond_Acceptors:                   6
##########                        HBond_Donors:                   2
##########                         Heavy_Atoms:                  30
##########                          Grid_Score:          -36.668381
##########                     Grid_vdw_energy:          -36.475014
##########                      Grid_es_energy:           -0.193367
##########           Internal_energy_repulsive:           15.652502

@<TRIPOS>MOLECULE
ZINC000464139057
 65 67 1 0 0
SMALL
USER_CHARGES


@<TRIPOS>ATOM
      1 C1        -13.2649    0.7636   53.5196 C.3     1  ZINC000464139057   -0.1800
      2 C2        -13.4356   -0.0289   52.2221 C.3     1  ZINC000464139057    0.0700
      3 H3        -13.7342    0.6460   51.4199 H       1  ZINC000464139057    0.1200
      4 C4        -12.1088   -0.7040   51.8560 C.3     1  ZINC000464139057    0.0800
      5 N5        -11.8233   -1.7411   52.8602 N.am    1  ZINC000464139057   -0.6100
      6 C6        -10.6257   -1.7999   53.4756 C.2     1  ZINC000464139057    0.5600
      7 O7        -10.4089   -2.6641   54.3022 O.2     1  ZINC000464139057   -0.5300
      8 C8         -9.5755   -0.8130   53.1450 C.ar    1  ZINC000464139057   -0.1200
      9 C9         -9.4891    0.3839   53.8578 C.ar    1  ZINC000464139057   -0.0900
     10 C10        -8.5065    1.3002   53.5446 C.ar    1  ZINC000464139057   -0.1000
     11 C11        -7.6083    1.0350   52.5263 C.ar    1  ZINC000464139057   -0.0900
     12 C12        -6.5378    2.0410   52.1894 C.3     1  ZINC000464139057    0.1800
     13 N13        -5.3290    1.3393   51.7507 N.am    1  ZINC000464139057   -0.7400
     14 C14        -4.1285    1.9454   51.8391 C.2     1  ZINC000464139057    0.7000
     15 O15        -4.0485    3.0739   52.2843 O.2     1  ZINC000464139057   -0.5900
     16 N16        -3.0165    1.3004   51.4340 N.am    1  ZINC000464139057   -0.7500
     17 C17        -1.7118    1.9599   51.5284 C.3     1  ZINC000464139057    0.1400
     18 C18        -1.5445    2.9295   50.3568 C.3     1  ZINC000464139057   -0.0900
     19 C19        -0.8216    2.2367   49.2306 C.2     1  ZINC000464139057   -0.1200
     20 C20        -1.1911    1.0517   48.8603 C.2     1  ZINC000464139057   -0.1500
     21 C21        -0.4737    0.3445   47.7306 C.3     1  ZINC000464139057   -0.0900
     22 C22        -0.8458    1.0269   46.4124 C.3     1  ZINC000464139057   -0.1100
     23 C23         0.0605    2.2161   46.1476 C.3     1  ZINC000464139057   -0.1200
     24 C24        -0.1210    3.3524   47.1383 C.3     1  ZINC000464139057   -0.1100
     25 C25         0.3286    2.9318   48.5339 C.3     1  ZINC000464139057   -0.0800
     26 C26        -7.6881   -0.1497   51.8161 C.ar    1  ZINC000464139057   -0.1000
     27 C27        -8.6625   -1.0769   52.1227 C.ar    1  ZINC000464139057   -0.0700
     28 C28       -12.8841   -2.7119   53.1726 C.3     1  ZINC000464139057    0.0700
     29 C29       -14.1730   -1.9390   53.4745 C.3     1  ZINC000464139057    0.0700
     30 H30       -14.0541   -1.3814   54.4035 H       1  ZINC000464139057    0.0700
     31 C31       -15.3374   -2.9218   53.6139 C.3     1  ZINC000464139057   -0.1500
     32 O32       -14.4401   -1.0300   52.4027 O.3     1  ZINC000464139057   -0.3700
     33 H33       -12.9663    0.0881   54.3214 H       1  ZINC000464139057    0.0600
     34 H34       -12.4977    1.5255   53.3818 H       1  ZINC000464139057    0.0700
     35 H35       -14.2091    1.2418   53.7802 H       1  ZINC000464139057    0.0700
     36 H36       -12.1890   -1.1603   50.8694 H       1  ZINC000464139057    0.0800
     37 H37       -11.3085    0.0360   51.8549 H       1  ZINC000464139057    0.1000
     38 H38       -10.1902    0.5923   54.6524 H       1  ZINC000464139057    0.1300
     39 H39        -8.4386    2.2268   54.0954 H       1  ZINC000464139057    0.1300
     40 H40        -6.8902    2.6924   51.3897 H       1  ZINC000464139057    0.0800
     41 H41        -6.3107    2.6391   53.0718 H       1  ZINC000464139057    0.0800
     42 H42        -5.3926    0.4384   51.3967 H       1  ZINC000464139057    0.4000
     43 H43        -3.0802    0.3996   51.0799 H       1  ZINC000464139057    0.4000
     44 H44        -1.6499    2.5104   52.4671 H       1  ZINC000464139057    0.0700
     45 H45        -0.9220    1.2095   51.4945 H       1  ZINC000464139057    0.0700
     46 H46        -2.5258    3.2558   50.0122 H       1  ZINC000464139057    0.0700
     47 H47        -0.9669    3.7952   50.6810 H       1  ZINC000464139057    0.0800
     48 H48        -2.0156    0.5655   49.3608 H       1  ZINC000464139057    0.1100
     49 H49         0.6035    0.4085   47.8845 H       1  ZINC000464139057    0.0700
     50 H50        -0.7799   -0.7011   47.7005 H       1  ZINC000464139057    0.0700
     51 H51        -0.7457    0.3108   45.5968 H       1  ZINC000464139057    0.0600
     52 H52        -1.8797    1.3683   46.4645 H       1  ZINC000464139057    0.0600
     53 H53         1.0968    1.8805   46.1882 H       1  ZINC000464139057    0.0600
     54 H54        -0.1419    2.5922   45.1448 H       1  ZINC000464139057    0.0600
     55 H55         0.4693    4.2093   46.8136 H       1  ZINC000464139057    0.0600
     56 H56        -1.1734    3.6346   47.1718 H       1  ZINC000464139057    0.0600
     57 H57         0.6226    3.8127   49.1046 H       1  ZINC000464139057    0.0700
     58 H58         1.1718    2.2455   48.4553 H       1  ZINC000464139057    0.0700
     59 H59        -6.9836   -0.3507   51.0226 H       1  ZINC000464139057    0.1300
     60 H60        -8.7237   -2.0014   51.5679 H       1  ZINC000464139057    0.1300
     61 H61       -13.0423   -3.3704   52.3185 H       1  ZINC000464139057    0.0800
     62 H62       -12.5971   -3.3016   54.0433 H       1  ZINC000464139057    0.1000
     63 H63       -15.1313   -3.6161   54.4285 H       1  ZINC000464139057    0.0800
     64 H64       -16.2535   -2.3716   53.8285 H       1  ZINC000464139057    0.0700
     65 H65       -15.4569   -3.4778   52.6841 H       1  ZINC000464139057    0.0700
@<TRIPOS>BOND
     1     1     2    1
     2     1    33    1
     3     1    34    1
     4     1    35    1
     5     2     3    1
     6     2    32    1
     7     2     4    1
     8     4     5    1
     9     4    36    1
    10     4    37    1
    11     5     6   am
    12     5    28    1
    13     6     7    2
    14     6     8    1
    15     8    27   ar
    16     8     9   ar
    17     9    10   ar
    18     9    38    1
    19    10    11   ar
    20    10    39    1
    21    11    12    1
    22    11    26   ar
    23    12    13    1
    24    12    40    1
    25    12    41    1
    26    13    14   am
    27    13    42    1
    28    14    15    2
    29    14    16   am
    30    16    17    1
    31    16    43    1
    32    17    18    1
    33    17    44    1
    34    17    45    1
    35    18    19    1
    36    18    46    1
    37    18    47    1
    38    19    25    1
    39    19    20    2
    40    20    21    1
    41    20    48    1
    42    21    22    1
    43    21    49    1
    44    21    50    1
    45    22    23    1
    46    22    51    1
    47    22    52    1
    48    23    24    1
    49    23    53    1
    50    23    54    1
    51    24    25    1
    52    24    55    1
    53    24    56    1
    54    25    57    1
    55    25    58    1
    56    26    27   ar
    57    26    59    1
    58    27    60    1
    59    28    29    1
    60    28    61    1
    61    28    62    1
    62    29    30    1
    63    29    31    1
    64    29    32    1
    65    31    63    1
    66    31    64    1
    67    31    65    1
@<TRIPOS>SUBSTRUCTURE
     1 ZINC000464139057        1 TEMP              0 ****  ****    0 ROOT


##########                                Name:    ZINC000546142192
##########                DOCK_Rotatable_Bonds:                  12
##########                         Heavy_Atoms:                  31
##########                    Molecular_Weight:             420.511
##########                DOCK_Rotatable_Bonds:                  12
##########                       Formal_Charge:          -0.0599997
##########                     HBond_Acceptors:                   7
##########                        HBond_Donors:                   2
##########                         Heavy_Atoms:                  31
##########                          Grid_Score:          -36.589863
##########                     Grid_vdw_energy:          -38.119823
##########                      Grid_es_energy:            1.529962
##########           Internal_energy_repulsive:           17.173038

@<TRIPOS>MOLECULE
ZINC000546142192
 59 61 1 0 0
SMALL
USER_CHARGES


@<TRIPOS>ATOM
      1 C1        -16.8485   -2.8656   52.9026 C.3     1  ZINC000546142192    0.0300
      2 O2        -15.9202   -3.1253   53.9886 O.3     1  ZINC000546142192   -0.3600
      3 C3        -14.6115   -3.0980   53.6915 C.2     1  ZINC000546142192    0.4600
      4 O4        -14.2542   -2.8959   52.5550 O.2     1  ZINC000546142192   -0.5100
      5 C5        -13.5880   -3.3192   54.7752 C.3     1  ZINC000546142192   -0.0800
      6 H6        -13.3656   -2.3708   55.2640 H       1  ZINC000546142192    0.1100
      7 C7        -14.1410   -4.3065   55.8050 C.3     1  ZINC000546142192   -0.1500
      8 C8        -12.3081   -3.8881   54.1593 C.3     1  ZINC000546142192   -0.0600
      9 C9        -11.3965   -2.7561   53.7606 C.ar    1  ZINC000546142192   -0.1000
     10 C10       -10.8828   -1.9109   54.7270 C.ar    1  ZINC000546142192   -0.0900
     11 C11       -10.0468   -0.8729   54.3650 C.ar    1  ZINC000546142192   -0.1200
     12 C12        -9.7221   -0.6786   53.0289 C.ar    1  ZINC000546142192    0.1600
     13 N13        -8.8748    0.3719   52.6587 N.am    1  ZINC000546142192   -0.6900
     14 C14        -7.5687    0.1343   52.4264 C.2     1  ZINC000546142192    0.7100
     15 O15        -7.1265   -0.9928   52.5385 O.2     1  ZINC000546142192   -0.5700
     16 N16        -6.7526    1.1460   52.0699 N.am    1  ZINC000546142192   -0.7400
     17 C17        -5.3325    0.8879   51.8191 C.3     1  ZINC000546142192    0.2300
     18 C18        -4.5276    2.1077   52.1872 C.2     1  ZINC000546142192    0.1800
     19 N19        -4.8427    2.9774   53.1076 N.2     1  ZINC000546142192   -0.4700
     20 C20        -3.8978    3.9279   53.1601 C.2     1  ZINC000546142192   -0.0300
     21 C21        -2.9616    3.6361   52.2370 C.2     1  ZINC000546142192   -0.0400
     22 N22        -3.3580    2.4786   51.6232 N.pl3   1  ZINC000546142192   -0.4500
     23 C23        -2.6500    1.7776   50.5491 C.3     1  ZINC000546142192    0.1100
     24 C24        -1.1587    2.1126   50.6179 C.3     1  ZINC000546142192   -0.0900
     25 C25        -0.4215    1.3441   49.5516 C.ar    1  ZINC000546142192   -0.0900
     26 C26        -1.0579    1.0206   48.3678 C.ar    1  ZINC000546142192   -0.1100
     27 C27        -0.3815    0.3157   47.3898 C.ar    1  ZINC000546142192   -0.1200
     28 C28         0.9313   -0.0654   47.5954 C.ar    1  ZINC000546142192   -0.1200
     29 C29         1.5679    0.2589   48.7787 C.ar    1  ZINC000546142192   -0.1200
     30 C30         0.8929    0.9676   49.7551 C.ar    1  ZINC000546142192   -0.1100
     31 C31       -10.2395   -1.5292   52.0608 C.ar    1  ZINC000546142192   -0.1500
     32 C32       -11.0708   -2.5685   52.4299 C.ar    1  ZINC000546142192   -0.0900
     33 H33       -16.7101   -3.6117   52.1202 H       1  ZINC000546142192    0.0600
     34 H34       -17.8705   -2.9177   53.2779 H       1  ZINC000546142192    0.1000
     35 H35       -16.6614   -1.8723   52.4947 H       1  ZINC000546142192    0.0600
     36 H36       -14.3633   -5.2550   55.3162 H       1  ZINC000546142192    0.0600
     37 H37       -13.4006   -4.4665   56.5888 H       1  ZINC000546142192    0.0800
     38 H38       -15.0527   -3.9013   56.2437 H       1  ZINC000546142192    0.0700
     39 H39       -11.8036   -4.5208   54.8895 H       1  ZINC000546142192    0.0800
     40 H40       -12.5601   -4.4790   53.2788 H       1  ZINC000546142192    0.0800
     41 H41       -11.1360   -2.0623   55.7659 H       1  ZINC000546142192    0.1300
     42 H42        -9.6462   -0.2129   55.1201 H       1  ZINC000546142192    0.1400
     43 H43        -9.2276    1.2711   52.5694 H       1  ZINC000546142192    0.4100
     44 H44        -7.1056    2.0448   51.9793 H       1  ZINC000546142192    0.4000
     45 H45        -5.0050    0.0410   52.4222 H       1  ZINC000546142192    0.0800
     46 H46        -5.1854    0.6606   50.7633 H       1  ZINC000546142192    0.1000
     47 H47        -3.8892    4.7783   53.8259 H       1  ZINC000546142192    0.1700
     48 H48        -2.0679    4.2038   52.0248 H       1  ZINC000546142192    0.1800
     49 H49        -2.7866    0.7024   50.6651 H       1  ZINC000546142192    0.1000
     50 H50        -3.0490    2.0925   49.5850 H       1  ZINC000546142192    0.0900
     51 H51        -1.0187    3.1817   50.4578 H       1  ZINC000546142192    0.0800
     52 H52        -0.7695    1.8380   51.5984 H       1  ZINC000546142192    0.0800
     53 H53        -2.0835    1.3183   48.2073 H       1  ZINC000546142192    0.1200
     54 H54        -0.8790    0.0625   46.4652 H       1  ZINC000546142192    0.1200
     55 H55         1.4594   -0.6167   46.8315 H       1  ZINC000546142192    0.1200
     56 H56         2.5934   -0.0391   48.9394 H       1  ZINC000546142192    0.1200
     57 H57         1.3903    1.2209   50.6796 H       1  ZINC000546142192    0.1200
     58 H58        -9.9887   -1.3807   51.0208 H       1  ZINC000546142192    0.1300
     59 H59       -11.4733   -3.2307   51.6775 H       1  ZINC000546142192    0.1300
@<TRIPOS>BOND
     1     1     2    1
     2     1    33    1
     3     1    34    1
     4     1    35    1
     5     2     3    1
     6     3     4    2
     7     3     5    1
     8     5     6    1
     9     5     7    1
    10     5     8    1
    11     7    36    1
    12     7    37    1
    13     7    38    1
    14     8     9    1
    15     8    39    1
    16     8    40    1
    17     9    32   ar
    18     9    10   ar
    19    10    11   ar
    20    10    41    1
    21    11    12   ar
    22    11    42    1
    23    12    13    1
    24    12    31   ar
    25    13    14   am
    26    13    43    1
    27    14    15    2
    28    14    16   am
    29    16    17    1
    30    16    44    1
    31    17    18    1
    32    17    45    1
    33    17    46    1
    34    18    22    1
    35    18    19    2
    36    19    20    1
    37    20    21    2
    38    20    47    1
    39    21    22    1
    40    21    48    1
    41    22    23    1
    42    23    24    1
    43    23    49    1
    44    23    50    1
    45    24    25    1
    46    24    51    1
    47    24    52    1
    48    25    30   ar
    49    25    26   ar
    50    26    27   ar
    51    26    53    1
    52    27    28   ar
    53    27    54    1
    54    28    29   ar
    55    28    55    1
    56    29    30   ar
    57    29    56    1
    58    30    57    1
    59    31    32   ar
    60    31    58    1
    61    32    59    1
@<TRIPOS>SUBSTRUCTURE
     1 ZINC000546142192        1 TEMP              0 ****  ****    0 ROOT


##########                                Name:    ZINC001573443776
##########                DOCK_Rotatable_Bonds:                   8
##########                         Heavy_Atoms:                  28
##########                    Molecular_Weight:             386.457
##########                DOCK_Rotatable_Bonds:                   8
##########                       Formal_Charge:          0.00999954
##########                     HBond_Acceptors:                  10
##########                        HBond_Donors:                   3
##########                         Heavy_Atoms:                  28
##########                          Grid_Score:          -36.423721
##########                     Grid_vdw_energy:          -35.539005
##########                      Grid_es_energy:           -0.884715
##########           Internal_energy_repulsive:           38.056999

@<TRIPOS>MOLECULE
ZINC001573443776
 54 56 1 0 0
SMALL
USER_CHARGES


@<TRIPOS>ATOM
      1 C1          0.4657    0.1362   47.4907 C.3     1  ZINC001573443776   -0.1800
      2 C2         -0.6709    0.9467   48.0583 C.2     1  ZINC001573443776    0.5100
      3 O3         -1.7975    0.7889   47.6378 O.2     1  ZINC001573443776   -0.5400
      4 N4         -0.4354    1.8470   49.0332 N.am    1  ZINC001573443776   -0.6100
      5 C5          0.9240    2.0494   49.5528 C.3     1  ZINC001573443776    0.1100
      6 C6          0.8981    1.8915   51.0764 C.3     1  ZINC001573443776   -0.1300
      7 C7         -0.1479    2.8405   51.6658 C.3     1  ZINC001573443776   -0.1000
      8 C8         -1.5313    2.4804   51.1194 C.3     1  ZINC001573443776   -0.1200
      9 H9         -1.7654    1.4467   51.3739 H       1  ZINC001573443776    0.1000
     10 C10        -2.5651    3.3941   51.7259 C.2     1  ZINC001573443776    0.5200
     11 O11        -2.6493    4.5455   51.3545 O.2     1  ZINC001573443776   -0.5300
     12 N12        -3.3959    2.9315   52.6810 N.am    1  ZINC001573443776   -0.7300
     13 C13        -4.4019    3.8192   53.2693 C.3     1  ZINC001573443776    0.1100
     14 C14        -5.6872    3.0312   53.5304 C.3     1  ZINC001573443776    0.1400
     15 H15        -5.4757    2.2064   54.2109 H       1  ZINC001573443776    0.0900
     16 C16        -6.7331    3.9548   54.1581 C.3     1  ZINC001573443776   -0.1700
     17 N17        -6.2006    2.5009   52.2650 N.pl3   1  ZINC001573443776   -0.7200
     18 C18        -7.1002    1.4423   52.2694 C.ar    1  ZINC001573443776    0.4300
     19 C19        -6.6709    0.1743   51.8880 C.ar    1  ZINC001573443776   -0.2500
     20 C20        -7.5714   -0.8728   51.8956 C.ar    1  ZINC001573443776    0.0100
     21 C21        -8.8887   -0.6149   52.2894 C.ar    1  ZINC001573443776   -0.1400
     22 C22        -9.8938   -1.7068   52.3149 C.2     1  ZINC001573443776    0.2400
     23 N23       -10.1402   -2.5269   53.3172 N.2     1  ZINC001573443776   -0.3000
     24 N24       -11.0795   -3.3287   52.9489 N.pl3   1  ZINC001573443776   -0.2300
     25 N25       -11.4361   -3.0427   51.7454 N.2     1  ZINC001573443776   -0.0500
     26 N26       -10.7318   -2.0471   51.3253 N.2     1  ZINC001573443776   -0.2700
     27 C27        -9.2439    0.6794   52.6575 C.ar    1  ZINC001573443776    0.2300
     28 C28       -10.6596    0.9713   53.0839 C.3     1  ZINC001573443776   -0.1200
     29 N29        -8.3541    1.6513   52.6418 N.ar    1  ZINC001573443776   -0.5400
     30 C30        -1.5321    2.6490   49.5924 C.3     1  ZINC001573443776    0.1200
     31 H31         0.8489    0.6253   46.5951 H       1  ZINC001573443776    0.0900
     32 H32         1.2617    0.0583   48.2310 H       1  ZINC001573443776    0.0800
     33 H33         0.1083   -0.8614   47.2351 H       1  ZINC001573443776    0.1000
     34 H34         1.5949    1.3074   49.1199 H       1  ZINC001573443776    0.1000
     35 H35         1.2683    3.0510   49.2951 H       1  ZINC001573443776    0.0700
     36 H36         0.6412    0.8633   51.3313 H       1  ZINC001573443776    0.0700
     37 H37         1.8796    2.1335   51.4839 H       1  ZINC001573443776    0.0800
     38 H38        -0.1512    2.7479   52.7519 H       1  ZINC001573443776    0.0800
     39 H39         0.0959    3.8663   51.3898 H       1  ZINC001573443776    0.0700
     40 H40        -3.3278    2.0109   52.9789 H       1  ZINC001573443776    0.4000
     41 H41        -4.0256    4.2225   54.2094 H       1  ZINC001573443776    0.0900
     42 H42        -4.6113    4.6379   52.5807 H       1  ZINC001573443776    0.0800
     43 H43        -6.3511    4.3494   55.0996 H       1  ZINC001573443776    0.0700
     44 H44        -6.9446    4.7796   53.4776 H       1  ZINC001573443776    0.0700
     45 H45        -7.6487    3.3935   54.3442 H       1  ZINC001573443776    0.0700
     46 H46        -5.9123    2.8888   51.4240 H       1  ZINC001573443776    0.4100
     47 H47        -5.6460    0.0114   51.5893 H       1  ZINC001573443776    0.1400
     48 H48        -7.2659   -1.8669   51.6041 H       1  ZINC001573443776    0.1400
     49 H49       -11.4583   -4.0368   53.4930 H       1  ZINC001573443776    0.4800
     50 H50       -10.7504    0.8334   54.1613 H       1  ZINC001573443776    0.0800
     51 H51       -10.9116    2.0002   52.8268 H       1  ZINC001573443776    0.0800
     52 H52       -11.3407    0.2917   52.5719 H       1  ZINC001573443776    0.1100
     53 H53        -1.3887    3.6998   49.3407 H       1  ZINC001573443776    0.0800
     54 H54        -2.4818    2.3003   49.1867 H       1  ZINC001573443776    0.0900
@<TRIPOS>BOND
     1     1     2    1
     2     1    31    1
     3     1    32    1
     4     1    33    1
     5     2     3    2
     6     2     4   am
     7     4    30    1
     8     4     5    1
     9     5     6    1
    10     5    34    1
    11     5    35    1
    12     6     7    1
    13     6    36    1
    14     6    37    1
    15     7     8    1
    16     7    38    1
    17     7    39    1
    18     8     9    1
    19     8    10    1
    20     8    30    1
    21    10    11    2
    22    10    12   am
    23    12    13    1
    24    12    40    1
    25    13    14    1
    26    13    41    1
    27    13    42    1
    28    14    15    1
    29    14    16    1
    30    14    17    1
    31    16    43    1
    32    16    44    1
    33    16    45    1
    34    17    18    1
    35    17    46    1
    36    18    29   ar
    37    18    19   ar
    38    19    20   ar
    39    19    47    1
    40    20    21   ar
    41    20    48    1
    42    21    22    1
    43    21    27   ar
    44    22    26    1
    45    22    23    2
    46    23    24    1
    47    24    25    1
    48    24    49    1
    49    25    26    2
    50    27    28    1
    51    27    29   ar
    52    28    50    1
    53    28    51    1
    54    28    52    1
    55    30    53    1
    56    30    54    1
@<TRIPOS>SUBSTRUCTURE
     1 ZINC001573443776        1 TEMP              0 ****  ****    0 ROOT


##########                                Name:    ZINC000562561773
##########                DOCK_Rotatable_Bonds:                   6
##########                         Heavy_Atoms:                  26
##########                    Molecular_Weight:             371.466
##########                DOCK_Rotatable_Bonds:                   6
##########                       Formal_Charge:           0.0199999
##########                     HBond_Acceptors:                   9
##########                        HBond_Donors:                   0
##########                         Heavy_Atoms:                  26
##########                          Grid_Score:          -36.392052
##########                     Grid_vdw_energy:          -32.786015
##########                      Grid_es_energy:           -3.606038
##########           Internal_energy_repulsive:           13.447948

@<TRIPOS>MOLECULE
ZINC000562561773
 47 50 1 0 0
SMALL
USER_CHARGES


@<TRIPOS>ATOM
      1 C1          0.4367    4.6487   46.3161 C.3     1  ZINC000562561773   -0.1100
      2 C2         -0.2287    4.3179   47.6272 C.ar    1  ZINC000562561773   -0.0400
      3 C3         -0.5560    5.3303   48.5086 C.ar    1  ZINC000562561773   -0.1200
      4 C4         -1.1658    5.0338   49.7116 C.ar    1  ZINC000562561773   -0.0700
      5 C5         -1.4531    3.7106   50.0403 C.ar    1  ZINC000562561773   -0.0300
      6 C6         -2.1089    3.3906   51.3328 C.2     1  ZINC000562561773    0.2200
      7 N7         -2.7678    2.2982   51.6194 N.2     1  ZINC000562561773   -0.3700
      8 O8         -3.1798    2.3468   52.7591 O.3     1  ZINC000562561773    0.0900
      9 C9         -2.8176    3.5009   53.3280 C.2     1  ZINC000562561773    0.1900
     10 C10        -3.1326    3.9436   54.7336 C.3     1  ZINC000562561773   -0.0100
     11 C11        -4.6227    3.7367   55.0117 C.3     1  ZINC000562561773   -0.1200
     12 S12        -5.5896    4.3614   53.6149 S.3     1  ZINC000562561773    0.0600
     13 C13        -6.5060    2.9134   53.2052 C.2     1  ZINC000562561773    0.2100
     14 N14        -6.6500    2.3929   52.0056 N.2     1  ZINC000562561773   -0.3300
     15 N15        -7.3798    1.3375   52.0579 N.2     1  ZINC000562561773   -0.0300
     16 N16        -7.7501    1.1084   53.2713 N.2     1  ZINC000562561773   -0.0700
     17 N17        -7.1900    2.1235   54.0664 N.pl3   1  ZINC000562561773   -0.3600
     18 C18        -7.3248    2.2951   55.5150 C.3     1  ZINC000562561773    0.0800
     19 N19        -2.1318    4.1718   52.4364 N.2     1  ZINC000562561773   -0.4600
     20 C20        -1.1239    2.6894   49.1531 C.ar    1  ZINC000562561773   -0.1100
     21 C21        -0.5167    2.9955   47.9443 C.ar    1  ZINC000562561773    0.0800
     22 N22        -0.1848    1.9744   47.0505 N.3     1  ZINC000562561773   -0.4800
     23 C23         0.7358    0.9939   47.6808 C.3     1  ZINC000562561773    0.0400
     24 C24         0.5688   -0.2679   46.7972 C.3     1  ZINC000562561773   -0.1200
     25 C25        -0.9398   -0.2562   46.4595 C.3     1  ZINC000562561773   -0.1300
     26 C26        -1.3846    1.2050   46.6556 C.3     1  ZINC000562561773    0.0400
     27 H27        -0.3249    4.8227   45.5559 H       1  ZINC000562561773    0.0700
     28 H28         1.0446    5.5457   46.4333 H       1  ZINC000562561773    0.0600
     29 H29         1.0714    3.8168   46.0107 H       1  ZINC000562561773    0.0800
     30 H30        -0.3339    6.3567   48.2560 H       1  ZINC000562561773    0.1400
     31 H31        -1.4198    5.8280   50.3980 H       1  ZINC000562561773    0.1400
     32 H32        -2.5461    3.3558   55.4397 H       1  ZINC000562561773    0.1200
     33 H33        -2.8851    4.9991   54.8462 H       1  ZINC000562561773    0.1300
     34 H34        -4.8232    2.6738   55.1459 H       1  ZINC000562561773    0.1100
     35 H35        -4.9018    4.2761   55.9169 H       1  ZINC000562561773    0.1100
     36 H36        -6.5208    1.7604   56.0207 H       1  ZINC000562561773    0.1000
     37 H37        -7.2677    3.3552   55.7622 H       1  ZINC000562561773    0.1000
     38 H38        -8.2862    1.8975   55.8400 H       1  ZINC000562561773    0.1100
     39 H39        -1.3443    1.6623   49.4037 H       1  ZINC000562561773    0.1300
     40 H40         1.7639    1.3543   47.6464 H       1  ZINC000562561773    0.0900
     41 H41         0.4335    0.7872   48.7075 H       1  ZINC000562561773    0.0500
     42 H42         1.1677   -0.1855   45.8902 H       1  ZINC000562561773    0.0800
     43 H43         0.8324   -1.1667   47.3545 H       1  ZINC000562561773    0.0700
     44 H44        -1.0986   -0.5645   45.4261 H       1  ZINC000562561773    0.0800
     45 H45        -1.4846   -0.9120   47.1388 H       1  ZINC000562561773    0.0700
     46 H46        -2.1374    1.2616   47.4419 H       1  ZINC000562561773    0.0500
     47 H47        -1.7878    1.5988   45.7227 H       1  ZINC000562561773    0.0800
@<TRIPOS>BOND
     1     1     2    1
     2     1    27    1
     3     1    28    1
     4     1    29    1
     5     2    21   ar
     6     2     3   ar
     7     3     4   ar
     8     3    30    1
     9     4     5   ar
    10     4    31    1
    11     5     6    1
    12     5    20   ar
    13     6    19    1
    14     6     7    2
    15     7     8    1
    16     8     9    1
    17     9    10    1
    18     9    19    2
    19    10    11    1
    20    10    32    1
    21    10    33    1
    22    11    12    1
    23    11    34    1
    24    11    35    1
    25    12    13    1
    26    13    17    1
    27    13    14    2
    28    14    15    1
    29    15    16    2
    30    16    17    1
    31    17    18    1
    32    18    36    1
    33    18    37    1
    34    18    38    1
    35    20    21   ar
    36    20    39    1
    37    21    22    1
    38    22    26    1
    39    22    23    1
    40    23    24    1
    41    23    40    1
    42    23    41    1
    43    24    25    1
    44    24    42    1
    45    24    43    1
    46    25    26    1
    47    25    44    1
    48    25    45    1
    49    26    46    1
    50    26    47    1
@<TRIPOS>SUBSTRUCTURE
     1 ZINC000562561773        1 TEMP              0 ****  ****    0 ROOT


##########                                Name:    ZINC000008416770
##########                DOCK_Rotatable_Bonds:                  13
##########                         Heavy_Atoms:                  30
##########                    Molecular_Weight:             412.442
##########                DOCK_Rotatable_Bonds:                  13
##########                       Formal_Charge:          -0.0199998
##########                     HBond_Acceptors:                   8
##########                        HBond_Donors:                   2
##########                         Heavy_Atoms:                  30
##########                          Grid_Score:          -36.310558
##########                     Grid_vdw_energy:          -34.434826
##########                      Grid_es_energy:           -1.875733
##########           Internal_energy_repulsive:           10.782110

@<TRIPOS>MOLECULE
ZINC000008416770
 54 55 1 0 0
SMALL
USER_CHARGES


@<TRIPOS>ATOM
      1 C1        -13.5145    3.3216   63.2925 C.3     1  ZINC000008416770   -0.1500
      2 C2        -14.1292    1.9742   63.6765 C.3     1  ZINC000008416770    0.0600
      3 O3        -14.2025    1.1235   62.5020 O.3     1  ZINC000008416770   -0.3500
      4 C4        -14.7242   -0.1076   62.6701 C.2     1  ZINC000008416770    0.5100
      5 O5        -15.1072   -0.4606   63.7678 O.2     1  ZINC000008416770   -0.5100
      6 C6        -14.8300   -1.0266   61.5216 C.ar    1  ZINC000008416770   -0.1500
      7 C7        -15.2041   -2.3587   61.7221 C.ar    1  ZINC000008416770   -0.0400
      8 C8        -15.3023   -3.2134   60.6477 C.ar    1  ZINC000008416770   -0.1400
      9 C9        -15.0299   -2.7531   59.3632 C.ar    1  ZINC000008416770    0.1800
     10 N10       -15.1304   -3.6217   58.2773 N.am    1  ZINC000008416770   -0.6700
     11 C11       -14.0344   -3.9270   57.5549 C.2     1  ZINC000008416770    0.5200
     12 O12       -12.9606   -3.4463   57.8495 O.2     1  ZINC000008416770   -0.5100
     13 C13       -14.1431   -4.8659   56.3812 C.3     1  ZINC000008416770   -0.1300
     14 C14       -14.8203   -4.1459   55.2132 C.3     1  ZINC000008416770   -0.1000
     15 C15       -13.7685   -3.5759   54.2968 C.2     1  ZINC000008416770    0.4700
     16 O16       -13.9374   -2.4963   53.7811 O.2     1  ZINC000008416770   -0.5100
     17 O17       -12.6442   -4.2674   54.0534 O.3     1  ZINC000008416770   -0.3300
     18 C18       -11.9550   -3.9876   52.8063 C.3     1  ZINC000008416770    0.0500
     19 C19       -10.9672   -2.8694   53.0182 C.2     1  ZINC000008416770    0.5100
     20 O20       -10.6011   -2.5879   54.1397 O.2     1  ZINC000008416770   -0.4900
     21 N21       -10.4906   -2.1822   51.9613 N.am    1  ZINC000008416770   -0.6700
     22 C22        -9.5734   -1.1439   52.1579 C.ar    1  ZINC000008416770    0.1400
     23 C23       -10.0249    0.1487   52.3900 C.ar    1  ZINC000008416770   -0.1400
     24 C24        -9.1170    1.1714   52.5838 C.ar    1  ZINC000008416770   -0.1000
     25 C25        -7.7599    0.9093   52.5463 C.ar    1  ZINC000008416770   -0.1000
     26 C26        -6.7720    2.0277   52.7577 C.3     1  ZINC000008416770   -0.1200
     27 C27        -7.3071   -0.3767   52.3159 C.ar    1  ZINC000008416770   -0.1000
     28 C28        -8.2098   -1.4048   52.1271 C.ar    1  ZINC000008416770   -0.1200
     29 C29       -14.6578   -1.4278   59.1597 C.ar    1  ZINC000008416770   -0.1600
     30 C30       -14.5622   -0.5661   60.2289 C.ar    1  ZINC000008416770   -0.0300
     31 H31       -12.5119    3.1636   62.8952 H       1  ZINC000008416770    0.0700
     32 H32       -14.1343    3.8010   62.5347 H       1  ZINC000008416770    0.0700
     33 H33       -13.4596    3.9603   64.1741 H       1  ZINC000008416770    0.0800
     34 H34       -13.5096    1.4948   64.4342 H       1  ZINC000008416770    0.0700
     35 H35       -15.1319    2.1322   64.0737 H       1  ZINC000008416770    0.0700
     36 H36       -15.4153   -2.7166   62.7189 H       1  ZINC000008416770    0.1400
     37 H37       -15.5909   -4.2426   60.8019 H       1  ZINC000008416770    0.1400
     38 H38       -15.9892   -4.0062   58.0417 H       1  ZINC000008416770    0.4200
     39 H39       -13.1464   -5.1885   56.0803 H       1  ZINC000008416770    0.1100
     40 H40       -14.7362   -5.7353   56.6650 H       1  ZINC000008416770    0.1100
     41 H41       -15.4393   -4.8526   54.6605 H       1  ZINC000008416770    0.1200
     42 H42       -15.4444   -3.3388   55.5967 H       1  ZINC000008416770    0.1200
     43 H43       -11.4266   -4.8815   52.4749 H       1  ZINC000008416770    0.1100
     44 H44       -12.6807   -3.6926   52.0484 H       1  ZINC000008416770    0.1100
     45 H45       -10.7833   -2.4073   51.0644 H       1  ZINC000008416770    0.4100
     46 H46       -11.0848    0.3542   52.4186 H       1  ZINC000008416770    0.1300
     47 H47        -9.4675    2.1768   52.7643 H       1  ZINC000008416770    0.1300
     48 H48        -6.5416    2.1131   53.8195 H       1  ZINC000008416770    0.0700
     49 H49        -5.8579    1.8146   52.2034 H       1  ZINC000008416770    0.0700
     50 H50        -7.2022    2.9643   52.4027 H       1  ZINC000008416770    0.0700
     51 H51        -6.2463   -0.5782   52.2872 H       1  ZINC000008416770    0.1300
     52 H52        -7.8555   -2.4091   51.9472 H       1  ZINC000008416770    0.1300
     53 H53       -14.4474   -1.0738   58.1613 H       1  ZINC000008416770    0.1400
     54 H54       -14.2733    0.4623   60.0703 H       1  ZINC000008416770    0.1400
@<TRIPOS>BOND
     1     1     2    1
     2     1    31    1
     3     1    32    1
     4     1    33    1
     5     2     3    1
     6     2    34    1
     7     2    35    1
     8     3     4    1
     9     4     5    2
    10     4     6    1
    11     6    30   ar
    12     6     7   ar
    13     7     8   ar
    14     7    36    1
    15     8     9   ar
    16     8    37    1
    17     9    10    1
    18     9    29   ar
    19    10    11   am
    20    10    38    1
    21    11    12    2
    22    11    13    1
    23    13    14    1
    24    13    39    1
    25    13    40    1
    26    14    15    1
    27    14    41    1
    28    14    42    1
    29    15    16    2
    30    15    17    1
    31    17    18    1
    32    18    19    1
    33    18    43    1
    34    18    44    1
    35    19    20    2
    36    19    21   am
    37    21    22    1
    38    21    45    1
    39    22    28   ar
    40    22    23   ar
    41    23    24   ar
    42    23    46    1
    43    24    25   ar
    44    24    47    1
    45    25    26    1
    46    25    27   ar
    47    26    48    1
    48    26    49    1
    49    26    50    1
    50    27    28   ar
    51    27    51    1
    52    28    52    1
    53    29    30   ar
    54    29    53    1
    55    30    54    1
@<TRIPOS>SUBSTRUCTURE
     1 ZINC000008416770        1 TEMP              0 ****  ****    0 ROOT


##########                                Name:    ZINC000062291520
##########                DOCK_Rotatable_Bonds:                  10
##########                         Heavy_Atoms:                  29
##########                    Molecular_Weight:             398.502
##########                DOCK_Rotatable_Bonds:                  10
##########                       Formal_Charge:          -0.0100006
##########                     HBond_Acceptors:                   6
##########                        HBond_Donors:                   1
##########                         Heavy_Atoms:                  29
##########                          Grid_Score:          -36.218609
##########                     Grid_vdw_energy:          -36.719414
##########                      Grid_es_energy:            0.500804
##########           Internal_energy_repulsive:           14.762113

@<TRIPOS>MOLECULE
ZINC000062291520
 59 61 1 0 0
SMALL
USER_CHARGES


@<TRIPOS>ATOM
      1 C1        -11.3343   -3.4909   52.3851 C.3     1  ZINC000062291520    0.0300
      2 O2        -10.4160   -2.3969   52.4327 O.3     1  ZINC000062291520   -0.3100
      3 C3        -10.6038   -1.4757   53.4153 C.ar    1  ZINC000062291520    0.1000
      4 C4        -11.6534   -1.6171   54.3081 C.ar    1  ZINC000062291520   -0.1700
      5 C5        -11.8462   -0.6763   55.3032 C.ar    1  ZINC000062291520   -0.1200
      6 C6        -10.9900    0.4030   55.4133 C.ar    1  ZINC000062291520   -0.1200
      7 C7         -9.9364    0.5467   54.5292 C.ar    1  ZINC000062291520   -0.1700
      8 C8         -9.7377   -0.3921   53.5300 C.ar    1  ZINC000062291520    0.1000
      9 O9         -8.7020   -0.2522   52.6598 O.3     1  ZINC000062291520   -0.3100
     10 C10        -7.8298    0.8614   52.8628 C.3     1  ZINC000062291520    0.0700
     11 C11        -6.6913    0.8103   51.8421 C.3     1  ZINC000062291520   -0.1400
     12 C12        -5.6355    1.8185   52.2162 C.2     1  ZINC000062291520    0.5200
     13 O13        -5.9056    2.7269   52.9731 O.2     1  ZINC000062291520   -0.5400
     14 N14        -4.3913    1.7107   51.7097 N.am    1  ZINC000062291520   -0.7200
     15 C15        -3.3645    2.6898   52.0748 C.3     1  ZINC000062291520    0.1600
     16 C16        -2.0513    2.2980   51.4478 C.ar    1  ZINC000062291520   -0.1100
     17 C17        -0.8796    2.4070   52.1726 C.ar    1  ZINC000062291520   -0.1000
     18 C18         0.3251    2.0471   51.5975 C.ar    1  ZINC000062291520   -0.1200
     19 C19         0.3577    1.5785   50.2977 C.ar    1  ZINC000062291520   -0.0900
     20 C20        -0.8143    1.4699   49.5724 C.ar    1  ZINC000062291520   -0.0800
     21 C21        -0.7787    0.9592   48.1550 C.3     1  ZINC000062291520    0.0900
     22 N22         0.3017    1.6300   47.4197 N.3     1  ZINC000062291520   -0.5300
     23 C23         1.0346    0.6762   46.5744 C.3     1  ZINC000062291520    0.0100
     24 C24         2.1857    1.4033   45.8741 C.3     1  ZINC000062291520    0.0600
     25 O25         1.6621    2.5016   45.1226 O.3     1  ZINC000062291520   -0.3800
     26 C26         0.9427    3.4504   45.9149 C.3     1  ZINC000062291520    0.0900
     27 H27         1.6099    3.8818   46.6610 H       1  ZINC000062291520    0.0700
     28 C28         0.3984    4.5605   45.0135 C.3     1  ZINC000062291520   -0.1500
     29 C29        -0.2209    2.7442   46.6156 C.3     1  ZINC000062291520    0.0200
     30 C30        -2.0194    1.8242   50.1493 C.ar    1  ZINC000062291520   -0.0900
     31 H31       -11.2855   -4.0471   53.3212 H       1  ZINC000062291520    0.0500
     32 H32       -12.3455   -3.1105   52.2406 H       1  ZINC000062291520    0.0600
     33 H33       -11.0721   -4.1495   51.5570 H       1  ZINC000062291520    0.1000
     34 H34       -12.3239   -2.4595   54.2242 H       1  ZINC000062291520    0.1400
     35 H35       -12.6674   -0.7855   55.9960 H       1  ZINC000062291520    0.1300
     36 H36       -11.1437    1.1355   56.1917 H       1  ZINC000062291520    0.1300
     37 H37        -9.2683    1.3906   54.6178 H       1  ZINC000062291520    0.1400
     38 H38        -7.4165    0.8201   53.8706 H       1  ZINC000062291520    0.0700
     39 H39        -8.3891    1.7886   52.7373 H       1  ZINC000062291520    0.0700
     40 H40        -7.0811    1.0431   50.8511 H       1  ZINC000062291520    0.1100
     41 H41        -6.2541   -0.1881   51.8351 H       1  ZINC000062291520    0.1100
     42 H42        -4.1756    0.9849   51.1034 H       1  ZINC000062291520    0.4000
     43 H43        -3.6587    3.6760   51.7157 H       1  ZINC000062291520    0.0800
     44 H44        -3.2560    2.7154   53.1591 H       1  ZINC000062291520    0.0800
     45 H45        -0.9051    2.7728   53.1884 H       1  ZINC000062291520    0.1200
     46 H46         1.2407    2.1319   52.1641 H       1  ZINC000062291520    0.1300
     47 H47         1.2988    1.2973   49.8485 H       1  ZINC000062291520    0.1200
     48 H48        -0.6013   -0.1162   48.1608 H       1  ZINC000062291520    0.0500
     49 H49        -1.7324    1.1675   47.6698 H       1  ZINC000062291520    0.0900
     50 H50         1.4345   -0.1266   47.1938 H       1  ZINC000062291520    0.0900
     51 H51         0.3596    0.2581   45.8278 H       1  ZINC000062291520    0.0400
     52 H52         2.8889    1.7746   46.6196 H       1  ZINC000062291520    0.0600
     53 H53         2.6968    0.7136   45.2025 H       1  ZINC000062291520    0.1000
     54 H54        -0.2699    4.1287   44.2686 H       1  ZINC000062291520    0.0600
     55 H55        -0.1497    5.2832   45.6179 H       1  ZINC000062291520    0.0700
     56 H56         1.2271    5.0604   44.5120 H       1  ZINC000062291520    0.0700
     57 H57        -0.9159    2.3597   45.8691 H       1  ZINC000062291520    0.0400
     58 H58        -0.7375    3.4507   47.2651 H       1  ZINC000062291520    0.0900
     59 H59        -2.9354    1.7348   49.5844 H       1  ZINC000062291520    0.1200
@<TRIPOS>BOND
     1     1     2    1
     2     1    31    1
     3     1    32    1
     4     1    33    1
     5     2     3    1
     6     3     8   ar
     7     3     4   ar
     8     4     5   ar
     9     4    34    1
    10     5     6   ar
    11     5    35    1
    12     6     7   ar
    13     6    36    1
    14     7     8   ar
    15     7    37    1
    16     8     9    1
    17     9    10    1
    18    10    11    1
    19    10    38    1
    20    10    39    1
    21    11    12    1
    22    11    40    1
    23    11    41    1
    24    12    13    2
    25    12    14   am
    26    14    15    1
    27    14    42    1
    28    15    16    1
    29    15    43    1
    30    15    44    1
    31    16    30   ar
    32    16    17   ar
    33    17    18   ar
    34    17    45    1
    35    18    19   ar
    36    18    46    1
    37    19    20   ar
    38    19    47    1
    39    20    21    1
    40    20    30   ar
    41    21    22    1
    42    21    48    1
    43    21    49    1
    44    22    29    1
    45    22    23    1
    46    23    24    1
    47    23    50    1
    48    23    51    1
    49    24    25    1
    50    24    52    1
    51    24    53    1
    52    25    26    1
    53    26    27    1
    54    26    28    1
    55    26    29    1
    56    28    54    1
    57    28    55    1
    58    28    56    1
    59    29    57    1
    60    29    58    1
    61    30    59    1
@<TRIPOS>SUBSTRUCTURE
     1 ZINC000062291520        1 TEMP              0 ****  ****    0 ROOT


##########                                Name:     oleObject14.pdb
##########                DOCK_Rotatable_Bonds:                   9
##########                         Heavy_Atoms:                  33
##########                    Molecular_Weight:             484.424
##########                DOCK_Rotatable_Bonds:                   9
##########                       Formal_Charge:         0.000299782
##########                     HBond_Acceptors:                   7
##########                        HBond_Donors:                   1
##########                         Heavy_Atoms:                  33
##########                          Grid_Score:          -36.184608
##########                     Grid_vdw_energy:          -36.455635
##########                      Grid_es_energy:            0.271027
##########           Internal_energy_repulsive:           13.132281

@<TRIPOS>MOLECULE
oleObject14.pdb
 60 63 1 0 0
SMALL
NO_CHARGES


@<TRIPOS>ATOM
      1 C           0.4763    3.6761   46.4941 C.ar    1  UNL         0.0422
      2 C          -0.0697    4.3785   47.5801 C.ar    1  UNL        -0.0408
      3 C          -0.8980    3.7165   48.5017 C.ar    1  UNL        -0.0288
      4 C          -1.1850    2.3440   48.3405 C.ar    1  UNL         0.0937
      5 C          -0.6321    1.6464   47.2471 C.ar    1  UNL         0.0723
      6 C           0.1959    2.3110   46.3270 C.ar    1  UNL        -0.0221
      7 CL         -0.9624   -0.0595   47.0090 Cl      1  UNL        -0.0814
      8 O          -1.9944    1.6561   49.2240 O.3     1  UNL        -0.3432
      9 C          -2.5413    2.2380   50.4207 C.3     1  UNL         0.0661
     10 C          -1.3979    2.3614   51.4490 C.3     1  UNL         0.0222
     11 N          -1.7520    3.1820   52.6285 N.4     1  UNL        -0.3010
     12 C          -2.8764    2.6437   53.4293 C.3     1  UNL        -0.0010
     13 C          -3.2737    3.5971   54.5783 C.3     1  UNL        -0.0289
     14 C          -2.0784    3.9751   55.4862 C.3     1  UNL         0.0382
     15 C          -0.8820    4.4458   54.6213 C.3     1  UNL        -0.0289
     16 C          -0.5600    3.4911   53.4476 C.3     1  UNL        -0.0010
     17 C          -1.6953    2.8167   56.4402 C.2     1  UNL         0.2156
     18 O          -2.4419    1.8766   56.6431 O.2     1  UNL        -0.2774
     19 N          -0.4497    2.8110   57.0547 N.am    1  UNL        -0.3025
     20 C           0.0904    1.8028   57.9861 C.3     1  UNL         0.0900
     21 C           1.6147    1.7117   57.9467 C.ar    1  UNL        -0.0217
     22 C           2.3335    2.0221   56.7746 C.ar    1  UNL        -0.0568
     23 C           3.7342    1.9222   56.7523 C.ar    1  UNL        -0.0619
     24 C           4.4282    1.5146   57.9024 C.ar    1  UNL        -0.0622
     25 C           3.7201    1.2097   59.0754 C.ar    1  UNL        -0.0619
     26 C           2.3195    1.3098   59.0973 C.ar    1  UNL        -0.0568
     27 C          -0.3997    2.0332   59.4125 C.ar    1  UNL         0.0652
     28 C          -0.5834    0.9651   60.3149 C.ar    1  UNL        -0.0383
     29 C          -1.0453    1.2402   61.6120 C.ar    1  UNL        -0.0588
     30 C          -1.3088    2.5736   61.9616 C.ar    1  UNL        -0.0438
     31 C          -1.1004    3.5773   61.0001 C.ar    1  UNL         0.0272
     32 N          -0.6570    3.3149   59.7539 N.ar    1  UNL        -0.2590
     33 CL          1.5080    4.5039   45.3475 Cl      1  UNL        -0.0843
     34 H           0.1481    5.4350   47.7089 H       1  UNL         0.0639
     35 H          -1.3087    4.2790   49.3338 H       1  UNL         0.0652
     36 H           0.6189    1.7683   45.4864 H       1  UNL         0.0655
     37 H          -3.3398    1.5990   50.8165 H       1  UNL         0.0586
     38 H          -2.9485    3.2346   50.2068 H       1  UNL         0.0586
     39 H          -0.5394    2.8168   50.9384 H       1  UNL         0.0455
     40 H          -1.0947    1.3563   51.7703 H       1  UNL         0.0455
     41 H          -2.5983    1.6675   53.8480 H       1  UNL         0.0431
     42 H          -3.7608    2.4937   52.7995 H       1  UNL         0.0431
     43 H          -4.0745    3.1428   55.1732 H       1  UNL         0.0288
     44 H          -3.6903    4.5139   54.1414 H       1  UNL         0.0288
     45 H          -2.3806    4.8420   56.0799 H       1  UNL         0.0402
     46 H           0.0078    4.5775   55.2500 H       1  UNL         0.0288
     47 H          -1.1187    5.4333   54.2042 H       1  UNL         0.0288
     48 H          -0.1329    2.5604   53.8420 H       1  UNL         0.0431
     49 H           0.2091    3.9610   52.8209 H       1  UNL         0.0431
     50 H           0.1888    3.5356   56.7523 H       1  UNL         0.1504
     51 H          -0.3166    0.8332   57.6718 H       1  UNL         0.0624
     52 H           1.8084    2.3323   55.8759 H       1  UNL         0.0626
     53 H           4.2807    2.1592   55.8440 H       1  UNL         0.0623
     54 H           5.5117    1.4377   57.8854 H       1  UNL         0.0623
     55 H           4.2560    0.8976   59.9673 H       1  UNL         0.0623
     56 H           1.7809    1.0735   60.0109 H       1  UNL         0.0626
     57 H          -0.3730   -0.0577   60.0175 H       1  UNL         0.0643
     58 H          -1.1957    0.4383   62.3290 H       1  UNL         0.0624
     59 H          -1.6673    2.8256   62.9553 H       1  UNL         0.0639
     60 H          -1.2946    4.6232   61.2344 H       1  UNL         0.0840
@<TRIPOS>BOND
     1     1     2   ar
     2     1     6   ar
     3     1    33    1
     4     2     3   ar
     5     2    34    1
     6     3     4   ar
     7     3    35    1
     8     4     5   ar
     9     4     8    1
    10     5     6   ar
    11     5     7    1
    12     6    36    1
    13     8     9    1
    14     9    10    1
    15     9    37    1
    16     9    38    1
    17    10    11    1
    18    10    39    1
    19    10    40    1
    20    11    12    1
    21    11    16    1
    22    12    13    1
    23    12    41    1
    24    12    42    1
    25    13    14    1
    26    13    43    1
    27    13    44    1
    28    14    15    1
    29    14    17    1
    30    14    45    1
    31    15    16    1
    32    15    46    1
    33    15    47    1
    34    16    48    1
    35    16    49    1
    36    17    18    2
    37    17    19   am
    38    19    20    1
    39    19    50    1
    40    20    21    1
    41    20    27    1
    42    20    51    1
    43    21    22   ar
    44    21    26   ar
    45    22    23   ar
    46    22    52    1
    47    23    24   ar
    48    23    53    1
    49    24    25   ar
    50    24    54    1
    51    25    26   ar
    52    25    55    1
    53    26    56    1
    54    27    28   ar
    55    27    32   ar
    56    28    29   ar
    57    28    57    1
    58    29    30   ar
    59    29    58    1
    60    30    31   ar
    61    30    59    1
    62    31    32   ar
    63    31    60    1
@<TRIPOS>SUBSTRUCTURE
     1 UNL         1 TEMP              0 ****  ****    0 ROOT


##########                                Name:    ZINC000552360217
##########                DOCK_Rotatable_Bonds:                  13
##########                         Heavy_Atoms:                  27
##########                    Molecular_Weight:             401.484
##########                DOCK_Rotatable_Bonds:                  13
##########                       Formal_Charge:          -0.0100002
##########                     HBond_Acceptors:                  10
##########                        HBond_Donors:                   3
##########                         Heavy_Atoms:                  27
##########                          Grid_Score:          -36.173031
##########                     Grid_vdw_energy:          -33.424652
##########                      Grid_es_energy:           -2.748379
##########           Internal_energy_repulsive:           18.886942

@<TRIPOS>MOLECULE
ZINC000552360217
 54 54 1 0 0
SMALL
USER_CHARGES


@<TRIPOS>ATOM
      1 C1        -13.0715   -1.9225   52.9097 C.3     1  ZINC000552360217    0.0800
      2 N2        -11.7117   -2.4656   52.9593 N.am    1  ZINC000552360217   -1.0000
      3 C3        -10.6372   -1.8204   52.2008 C.3     1  ZINC000552360217    0.0900
      4 S4        -11.3893   -3.8086   53.8729 S.o2    1  ZINC000552360217    2.7000
      5 O5        -12.3124   -4.8065   53.4590 O.2     1  ZINC000552360217   -0.9500
      6 O6         -9.9804   -3.9900   53.8363 O.2     1  ZINC000552360217   -0.9500
      7 C7        -11.7971   -3.4147   55.5411 C.ar    1  ZINC000552360217   -0.6900
      8 C8        -12.8640   -4.0434   56.1577 C.ar    1  ZINC000552360217    0.0100
      9 C9        -13.1907   -3.7402   57.4678 C.ar    1  ZINC000552360217   -0.1400
     10 C10       -12.4534   -2.8078   58.1676 C.ar    1  ZINC000552360217   -0.0300
     11 C11       -11.3756   -2.1697   57.5513 C.ar    1  ZINC000552360217   -0.1600
     12 C12       -10.5808   -1.1695   58.2954 C.2     1  ZINC000552360217    0.5600
     13 O13       -10.3847   -0.0699   57.8157 O.2     1  ZINC000552360217   -0.5300
     14 N14       -10.0736   -1.4769   59.5056 N.am    1  ZINC000552360217   -0.7100
     15 C15        -9.2874   -0.4852   60.2438 C.3     1  ZINC000552360217    0.1000
     16 C16        -9.5652   -0.6208   61.7187 C.2     1  ZINC000552360217    0.5100
     17 O17       -10.4755   -1.3245   62.1022 O.2     1  ZINC000552360217   -0.5400
     18 N18        -8.8022    0.0403   62.6117 N.am    1  ZINC000552360217   -0.7200
     19 C19        -9.0712   -0.0927   64.0456 C.3     1  ZINC000552360217    0.1400
     20 C20        -9.1289    1.2962   64.6847 C.3     1  ZINC000552360217    0.1000
     21 C21        -8.2228    2.2531   63.9074 C.3     1  ZINC000552360217   -0.1800
     22 C22       -10.5679    1.8146   64.6493 C.3     1  ZINC000552360217   -0.1800
     23 O23        -8.6847    1.2155   66.0405 O.3     1  ZINC000552360217   -0.3700
     24 C24        -9.3389    0.2026   66.8072 C.3     1  ZINC000552360217    0.0600
     25 C25        -8.3098   -0.8297   67.2722 C.3     1  ZINC000552360217    0.0800
     26 O26        -8.9342   -1.7572   68.1621 O.3     1  ZINC000552360217   -0.5700
     27 C27       -11.0482   -2.4839   56.2315 C.ar    1  ZINC000552360217    0.0400
     28 H28       -13.6188   -2.3877   52.0898 H       1  ZINC000552360217    0.0600
     29 H29       -13.5806   -2.1310   53.8507 H       1  ZINC000552360217    0.0900
     30 H30       -13.0269   -0.8449   52.7517 H       1  ZINC000552360217    0.0800
     31 H31       -11.0370   -0.9592   51.6652 H       1  ZINC000552360217    0.0800
     32 H32        -9.8558   -1.4914   52.8857 H       1  ZINC000552360217    0.0700
     33 H33       -10.2195   -2.5303   51.4869 H       1  ZINC000552360217    0.0600
     34 H34       -13.4447   -4.7741   55.6141 H       1  ZINC000552360217    0.1500
     35 H35       -14.0250   -4.2344   57.9432 H       1  ZINC000552360217    0.1400
     36 H36       -12.7096   -2.5717   59.1898 H       1  ZINC000552360217    0.1400
     37 H37       -10.2290   -2.3547   59.8880 H       1  ZINC000552360217    0.4100
     38 H38        -8.2262   -0.6509   60.0573 H       1  ZINC000552360217    0.1000
     39 H39        -9.5625    0.5161   59.9127 H       1  ZINC000552360217    0.1000
     40 H40        -8.0750    0.6041   62.3049 H       1  ZINC000552360217    0.4100
     41 H41       -10.0253   -0.5994   64.1908 H       1  ZINC000552360217    0.0800
     42 H42        -8.2761   -0.6746   64.5121 H       1  ZINC000552360217    0.0900
     43 H43        -8.5616    2.3147   62.8732 H       1  ZINC000552360217    0.0700
     44 H44        -8.2638    3.2427   64.3627 H       1  ZINC000552360217    0.0700
     45 H45        -7.1975    1.8839   63.9325 H       1  ZINC000552360217    0.0700
     46 H46       -11.2134    1.1328   65.2031 H       1  ZINC000552360217    0.0600
     47 H47       -10.6089    2.8041   65.1047 H       1  ZINC000552360217    0.0700
     48 H48       -10.9066    1.8761   63.6152 H       1  ZINC000552360217    0.0700
     49 H49        -9.8168    0.6560   67.6757 H       1  ZINC000552360217    0.0600
     50 H50       -10.0934   -0.2881   66.1923 H       1  ZINC000552360217    0.0700
     51 H51        -7.9156   -1.3643   66.4080 H       1  ZINC000552360217    0.0600
     52 H52        -7.4948   -0.3229   67.7888 H       1  ZINC000552360217    0.0500
     53 H53        -9.3086   -1.3502   68.9553 H       1  ZINC000552360217    0.3800
     54 H54       -10.2156   -1.9937   55.7491 H       1  ZINC000552360217    0.1500
@<TRIPOS>BOND
     1     1     2    1
     2     1    28    1
     3     1    29    1
     4     1    30    1
     5     2     3    1
     6     2     4   am
     7     3    31    1
     8     3    32    1
     9     3    33    1
    10     4     5    2
    11     4     6    2
    12     4     7    1
    13     7    27   ar
    14     7     8   ar
    15     8     9   ar
    16     8    34    1
    17     9    10   ar
    18     9    35    1
    19    10    11   ar
    20    10    36    1
    21    11    12    1
    22    11    27   ar
    23    12    13    2
    24    12    14   am
    25    14    15    1
    26    14    37    1
    27    15    16    1
    28    15    38    1
    29    15    39    1
    30    16    17    2
    31    16    18   am
    32    18    19    1
    33    18    40    1
    34    19    20    1
    35    19    41    1
    36    19    42    1
    37    20    21    1
    38    20    22    1
    39    20    23    1
    40    21    43    1
    41    21    44    1
    42    21    45    1
    43    22    46    1
    44    22    47    1
    45    22    48    1
    46    23    24    1
    47    24    25    1
    48    24    49    1
    49    24    50    1
    50    25    26    1
    51    25    51    1
    52    25    52    1
    53    26    53    1
    54    27    54    1
@<TRIPOS>SUBSTRUCTURE
     1 ZINC000552360217        1 TEMP              0 ****  ****    0 ROOT


##########                                Name:    ZINC000442010511
##########                DOCK_Rotatable_Bonds:                  11
##########                         Heavy_Atoms:                  31
##########                    Molecular_Weight:             422.481
##########                DOCK_Rotatable_Bonds:                  11
##########                       Formal_Charge:          -0.0200005
##########                     HBond_Acceptors:                   7
##########                        HBond_Donors:                   2
##########                         Heavy_Atoms:                  31
##########                          Grid_Score:          -36.164394
##########                     Grid_vdw_energy:          -32.062458
##########                      Grid_es_energy:           -4.101935
##########           Internal_energy_repulsive:            8.016547

@<TRIPOS>MOLECULE
ZINC000442010511
 57 59 1 0 0
SMALL
USER_CHARGES


@<TRIPOS>ATOM
      1 C1        -10.5299   -2.7390   52.8566 C.3     1  ZINC000442010511   -0.1500
      2 C2        -10.3767   -1.4943   51.9803 C.3     1  ZINC000442010511   -0.0500
      3 C3         -9.2845   -0.6185   52.5381 C.2     1  ZINC000442010511    0.0000
      4 C4         -7.9801   -0.6871   52.2170 C.2     1  ZINC000442010511   -0.2100
      5 C5         -7.3200    0.3113   52.9696 C.2     1  ZINC000442010511   -0.1900
      6 C6         -8.2605    0.9303   53.7055 C.2     1  ZINC000442010511   -0.0300
      7 C7         -8.0217    2.0679   54.6645 C.3     1  ZINC000442010511    0.2400
      8 H8         -8.6578    2.9106   54.3942 H       1  ZINC000442010511    0.1400
      9 C9         -8.3540    1.6138   56.0873 C.3     1  ZINC000442010511    0.0500
     10 O10        -9.7230    1.2088   56.1505 O.3     1  ZINC000442010511   -0.3800
     11 C11       -10.1387    0.7651   57.4437 C.3     1  ZINC000442010511    0.0300
     12 N12        -6.6162    2.4760   54.5980 N.am    1  ZINC000442010511   -0.6900
     13 C13        -6.2375    3.6718   55.0910 C.2     1  ZINC000442010511    0.5200
     14 O14        -7.0611    4.4111   55.5889 O.2     1  ZINC000442010511   -0.5100
     15 C15        -4.8046    4.0870   55.0248 C.2     1  ZINC000442010511    0.5100
     16 O16        -4.4945    5.2367   55.2601 O.2     1  ZINC000442010511   -0.5000
     17 N17        -3.8558    3.1853   54.7038 N.am    1  ZINC000442010511   -0.6300
     18 C18        -2.5138    3.5741   54.6418 C.ar    1  ZINC000442010511    0.1200
     19 C19        -1.7157    3.5024   55.7745 C.ar    1  ZINC000442010511   -0.1000
     20 C20        -0.3898    3.8874   55.7106 C.ar    1  ZINC000442010511   -0.1300
     21 C21         0.1447    4.3443   54.5200 C.ar    1  ZINC000442010511   -0.0900
     22 C22        -0.6441    4.4192   53.3869 C.ar    1  ZINC000442010511   -0.1700
     23 C23        -1.9726    4.0295   53.4403 C.ar    1  ZINC000442010511    0.1000
     24 O24        -2.7494    4.1026   52.3272 O.3     1  ZINC000442010511   -0.2600
     25 C25        -2.3150    3.4740   51.2036 C.ar    1  ZINC000442010511    0.0800
     26 C26        -1.7235    4.2048   50.1830 C.ar    1  ZINC000442010511   -0.1300
     27 C27        -1.2823    3.5633   49.0419 C.ar    1  ZINC000442010511   -0.1100
     28 C28        -1.4302    2.1943   48.9160 C.ar    1  ZINC000442010511   -0.0800
     29 C29        -0.9484    1.4972   47.6698 C.3     1  ZINC000442010511   -0.1200
     30 C30        -2.0188    1.4637   49.9317 C.ar    1  ZINC000442010511   -0.1100
     31 C31        -2.4569    2.0995   51.0771 C.ar    1  ZINC000442010511   -0.1100
     32 O32        -9.4494    0.3667   53.4357 O.3     1  ZINC000442010511   -0.1600
     33 H33        -9.5910   -3.2925   52.8689 H       1  ZINC000442010511    0.0600
     34 H34       -10.7880   -2.4388   53.8721 H       1  ZINC000442010511    0.0600
     35 H35       -11.3198   -3.3725   52.4532 H       1  ZINC000442010511    0.0700
     36 H36       -10.1186   -1.7945   50.9647 H       1  ZINC000442010511    0.0900
     37 H37       -11.3156   -0.9408   51.9679 H       1  ZINC000442010511    0.0800
     38 H38        -7.5244   -1.3735   51.5188 H       1  ZINC000442010511    0.1500
     39 H39        -6.2632    0.5339   52.9564 H       1  ZINC000442010511    0.1500
     40 H40        -7.7139    0.7748   56.3598 H       1  ZINC000442010511    0.0700
     41 H41        -8.1867    2.4385   56.7802 H       1  ZINC000442010511    0.0700
     42 H42       -11.1889    0.4755   57.4082 H       1  ZINC000442010511    0.0900
     43 H43        -9.5356   -0.0913   57.7452 H       1  ZINC000442010511    0.0400
     44 H44       -10.0087    1.5728   58.1640 H       1  ZINC000442010511    0.0400
     45 H45        -5.9581    1.8855   54.1989 H       1  ZINC000442010511    0.4200
     46 H46        -4.1037    2.2666   54.5158 H       1  ZINC000442010511    0.4300
     47 H47        -2.1303    3.1463   56.7060 H       1  ZINC000442010511    0.1600
     48 H48         0.2304    3.8314   56.5930 H       1  ZINC000442010511    0.1300
     49 H49         1.1813    4.6439   54.4752 H       1  ZINC000442010511    0.1300
     50 H50        -0.2234    4.7772   52.4590 H       1  ZINC000442010511    0.1300
     51 H51        -1.6084    5.2742   50.2805 H       1  ZINC000442010511    0.1300
     52 H52        -0.8218    4.1316   48.2473 H       1  ZINC000442010511    0.1300
     53 H53         0.0888    1.1897   47.8034 H       1  ZINC000442010511    0.0700
     54 H54        -1.5664    0.6190   47.4827 H       1  ZINC000442010511    0.0700
     55 H55        -1.0191    2.1785   46.8220 H       1  ZINC000442010511    0.0700
     56 H56        -2.1331    0.3945   49.8308 H       1  ZINC000442010511    0.1300
     57 H57        -2.9165    1.5284   51.8702 H       1  ZINC000442010511    0.1300
@<TRIPOS>BOND
     1     1     2    1
     2     1    33    1
     3     1    34    1
     4     1    35    1
     5     2     3    1
     6     2    36    1
     7     2    37    1
     8     3    32    1
     9     3     4    2
    10     4     5    1
    11     4    38    1
    12     5     6    2
    13     5    39    1
    14     6     7    1
    15     6    32    1
    16     7     8    1
    17     7     9    1
    18     7    12    1
    19     9    10    1
    20     9    40    1
    21     9    41    1
    22    10    11    1
    23    11    42    1
    24    11    43    1
    25    11    44    1
    26    12    13   am
    27    12    45    1
    28    13    14    2
    29    13    15    1
    30    15    16    2
    31    15    17   am
    32    17    18    1
    33    17    46    1
    34    18    23   ar
    35    18    19   ar
    36    19    20   ar
    37    19    47    1
    38    20    21   ar
    39    20    48    1
    40    21    22   ar
    41    21    49    1
    42    22    23   ar
    43    22    50    1
    44    23    24    1
    45    24    25    1
    46    25    31   ar
    47    25    26   ar
    48    26    27   ar
    49    26    51    1
    50    27    28   ar
    51    27    52    1
    52    28    29    1
    53    28    30   ar
    54    29    53    1
    55    29    54    1
    56    29    55    1
    57    30    31   ar
    58    30    56    1
    59    31    57    1
@<TRIPOS>SUBSTRUCTURE
     1 ZINC000442010511        1 TEMP              0 ****  ****    0 ROOT


##########                                Name:    ZINC000033150761
##########                DOCK_Rotatable_Bonds:                   7
##########                         Heavy_Atoms:                  29
##########                    Molecular_Weight:             413.407
##########                DOCK_Rotatable_Bonds:                   7
##########                       Formal_Charge:          0.00999993
##########                     HBond_Acceptors:                  10
##########                        HBond_Donors:                   1
##########                         Heavy_Atoms:                  29
##########                          Grid_Score:          -36.144199
##########                     Grid_vdw_energy:          -34.965523
##########                      Grid_es_energy:           -1.178677
##########           Internal_energy_repulsive:            2.440359

@<TRIPOS>MOLECULE
ZINC000033150761
 42 45 1 0 0
SMALL
USER_CHARGES


@<TRIPOS>ATOM
      1 O1         -6.6632    0.9290   50.4727 O.2     1  ZINC000033150761   -0.5000
      2 C2         -6.5073    0.1900   51.4216 C.2     1  ZINC000033150761    0.5200
      3 C3         -7.5799   -0.8035   51.7871 C.3     1  ZINC000033150761   -0.1300
      4 C4         -8.7087   -0.0854   52.5296 C.3     1  ZINC000033150761   -0.0100
      5 C5         -9.8534   -1.0408   52.7486 C.2     1  ZINC000033150761    0.1800
      6 N6        -10.0926   -1.7323   53.8348 N.2     1  ZINC000033150761   -0.4400
      7 C7        -11.2130   -2.4426   53.5736 C.2     1  ZINC000033150761    0.2200
      8 C8        -11.8942   -3.3852   54.4967 C.ar    1  ZINC000033150761    0.1900
      9 C9        -11.4109   -3.5540   55.7913 C.ar    1  ZINC000033150761   -0.1300
     10 C10       -12.0566   -4.4367   56.6411 C.ar    1  ZINC000033150761   -0.0700
     11 C11       -13.1652   -5.1214   56.1661 C.ar    1  ZINC000033150761   -0.1500
     12 C12       -13.5910   -4.9048   54.8675 C.ar    1  ZINC000033150761    0.1100
     13 N13       -12.9613   -4.0554   54.0825 N.ar    1  ZINC000033150761   -0.4500
     14 N14       -11.5847   -2.1438   52.3565 N.2     1  ZINC000033150761   -0.3600
     15 O15       -10.8187   -1.3373   51.8728 O.3     1  ZINC000033150761    0.0900
     16 N16        -5.3725    0.2533   52.1459 N.am    1  ZINC000033150761   -0.6200
     17 C17        -4.3835    1.1694   51.8089 C.2     1  ZINC000033150761    0.2700
     18 N18        -3.3002    0.8947   51.1516 N.2     1  ZINC000033150761   -0.5000
     19 C19        -2.4661    1.8985   50.9194 C.2     1  ZINC000033150761    0.1200
     20 C20        -1.1938    1.7169   50.1787 C.ar    1  ZINC000033150761    0.0000
     21 C21        -0.0274    1.3839   50.8646 C.ar    1  ZINC000033150761   -0.0800
     22 C22         1.1548    1.2153   50.1722 C.ar    1  ZINC000033150761   -0.1200
     23 C23         1.1840    1.3763   48.7974 C.ar    1  ZINC000033150761    0.0700
     24 F24         2.3434    1.2102   48.1242 F       1  ZINC000033150761   -0.1300
     25 C25         0.0254    1.7076   48.1090 C.ar    1  ZINC000033150761    0.0700
     26 F26         0.0586    1.8632   46.7674 F       1  ZINC000033150761   -0.1300
     27 C27        -1.1629    1.8733   48.7938 C.ar    1  ZINC000033150761   -0.1000
     28 C28        -2.8531    3.0929   51.4015 C.2     1  ZINC000033150761   -0.2800
     29 S29        -4.4096    2.8859   52.2014 S.3     1  ZINC000033150761    0.2200
     30 H30        -7.9753   -1.2615   50.8803 H       1  ZINC000033150761    0.1200
     31 H31        -7.1564   -1.5758   52.4292 H       1  ZINC000033150761    0.1200
     32 H32        -8.3419    0.2692   53.4929 H       1  ZINC000033150761    0.1300
     33 H33        -9.0514    0.7627   51.9369 H       1  ZINC000033150761    0.1200
     34 H34       -10.5443   -3.0044   56.1281 H       1  ZINC000033150761    0.1400
     35 H35       -11.7046   -4.5887   57.6507 H       1  ZINC000033150761    0.1500
     36 H36       -13.6909   -5.8171   56.8034 H       1  ZINC000033150761    0.1400
     37 H37       -14.4538   -5.4361   54.4941 H       1  ZINC000033150761    0.1700
     38 H38        -5.2462   -0.3405   52.9025 H       1  ZINC000033150761    0.4300
     39 H39        -0.0483    1.2583   51.9370 H       1  ZINC000033150761    0.1400
     40 H40         2.0588    0.9575   50.7040 H       1  ZINC000033150761    0.1500
     41 H41        -2.0647    2.1310   48.2583 H       1  ZINC000033150761    0.1600
     42 H42        -2.3065    4.0198   51.3101 H       1  ZINC000033150761    0.1800
@<TRIPOS>BOND
     1     1     2    2
     2     2     3    1
     3     2    16   am
     4     3     4    1
     5     3    30    1
     6     3    31    1
     7     4     5    1
     8     4    32    1
     9     4    33    1
    10     5    15    1
    11     5     6    2
    12     6     7    1
    13     7     8    1
    14     7    14    2
    15     8    13   ar
    16     8     9   ar
    17     9    10   ar
    18     9    34    1
    19    10    11   ar
    20    10    35    1
    21    11    12   ar
    22    11    36    1
    23    12    13   ar
    24    12    37    1
    25    14    15    1
    26    16    17    1
    27    16    38    1
    28    17    29    1
    29    17    18    2
    30    18    19    1
    31    19    20    1
    32    19    28    2
    33    20    27   ar
    34    20    21   ar
    35    21    22   ar
    36    21    39    1
    37    22    23   ar
    38    22    40    1
    39    23    24    1
    40    23    25   ar
    41    25    26    1
    42    25    27   ar
    43    27    41    1
    44    28    29    1
    45    28    42    1
@<TRIPOS>SUBSTRUCTURE
     1 ZINC000033150761        1 TEMP              0 ****  ****    0 ROOT


##########                                Name:    ZINC000051488227
##########                DOCK_Rotatable_Bonds:                   8
##########                         Heavy_Atoms:                  30
##########                    Molecular_Weight:             403.478
##########                DOCK_Rotatable_Bonds:                   8
##########                       Formal_Charge:           0.0199996
##########                     HBond_Acceptors:                   5
##########                        HBond_Donors:                   0
##########                         Heavy_Atoms:                  30
##########                          Grid_Score:          -36.088696
##########                     Grid_vdw_energy:          -36.382637
##########                      Grid_es_energy:            0.293942
##########           Internal_energy_repulsive:           20.305523

@<TRIPOS>MOLECULE
ZINC000051488227
 55 58 1 0 0
SMALL
USER_CHARGES


@<TRIPOS>ATOM
      1 O1          1.2782    2.1148   49.4166 O.2     1  ZINC000051488227   -0.5000
      2 C2          0.2509    2.1311   48.7807 C.2     1  ZINC000051488227    0.4800
      3 O3         -0.9317    2.1071   49.4153 O.3     1  ZINC000051488227   -0.3400
      4 C4         -0.9023    2.1577   50.8662 C.3     1  ZINC000051488227    0.1100
      5 C5         -2.3116    2.2318   51.3948 C.ar    1  ZINC000051488227   -0.1400
      6 C6         -3.1926    1.1926   51.1593 C.ar    1  ZINC000051488227   -0.0500
      7 C7         -4.4851    1.2581   51.6427 C.ar    1  ZINC000051488227   -0.1500
      8 C8         -4.8986    2.3678   52.3655 C.ar    1  ZINC000051488227    0.1500
      9 O9         -6.1694    2.4344   52.8426 O.3     1  ZINC000051488227   -0.3100
     10 C10        -7.2270    2.2607   51.8975 C.3     1  ZINC000051488227    0.1100
     11 C11        -7.9616    0.9790   52.1957 C.ar    1  ZINC000051488227    0.1200
     12 C12        -9.1376    1.0186   52.9201 C.ar    1  ZINC000051488227   -0.1500
     13 C13        -9.8060   -0.1663   53.1886 C.ar    1  ZINC000051488227   -0.0700
     14 C14        -9.2637   -1.3515   52.7162 C.ar    1  ZINC000051488227   -0.1700
     15 C15        -8.0830   -1.3129   51.9983 C.ar    1  ZINC000051488227    0.1100
     16 N16        -7.4774   -0.1667   51.7575 N.ar    1  ZINC000051488227   -0.4800
     17 C17        -4.0125    3.4089   52.6009 C.ar    1  ZINC000051488227   -0.2100
     18 C18        -2.7198    3.3364   52.1194 C.ar    1  ZINC000051488227   -0.0500
     19 C19         0.2973    2.1849   47.2754 C.3     1  ZINC000051488227    0.0000
     20 C20         0.3081    3.6221   46.8225 C.ar    1  ZINC000051488227   -0.0900
     21 C21         0.3088    4.6411   47.7565 C.ar    1  ZINC000051488227   -0.1100
     22 C22         0.3187    5.9596   47.3411 C.ar    1  ZINC000051488227   -0.1200
     23 C23         0.3284    6.2590   45.9916 C.ar    1  ZINC000051488227   -0.1100
     24 C24         0.3286    5.2399   45.0576 C.ar    1  ZINC000051488227   -0.1200
     25 C25         0.3230    3.9215   45.4730 C.ar    1  ZINC000051488227   -0.1000
     26 C26         1.5617    1.4790   46.7763 C.3     1  ZINC000051488227   -0.1400
     27 C27         1.5035    0.0020   47.1750 C.3     1  ZINC000051488227    0.0600
     28 O28         0.3215   -0.5902   46.6327 O.3     1  ZINC000051488227   -0.3800
     29 C29        -0.8937   -0.0016   47.1010 C.3     1  ZINC000051488227    0.0500
     30 C30        -0.9317    1.4752   46.6991 C.3     1  ZINC000051488227   -0.1400
     31 H31        -0.4165    1.2612   51.2514 H       1  ZINC000051488227    0.0800
     32 H32        -0.3469    3.0387   51.1878 H       1  ZINC000051488227    0.0800
     33 H33        -2.8702    0.3289   50.5965 H       1  ZINC000051488227    0.1300
     34 H34        -5.1730    0.4464   51.4579 H       1  ZINC000051488227    0.1400
     35 H35        -7.9184    3.1005   51.9675 H       1  ZINC000051488227    0.0900
     36 H36        -6.8110    2.2153   50.8910 H       1  ZINC000051488227    0.0900
     37 H37        -9.5311    1.9604   53.2729 H       1  ZINC000051488227    0.1400
     38 H38       -10.7271   -0.1660   53.7526 H       1  ZINC000051488227    0.1400
     39 H39        -9.7572   -2.2930   52.9070 H       1  ZINC000051488227    0.1400
     40 H40        -7.6538   -2.2318   51.6271 H       1  ZINC000051488227    0.1600
     41 H41        -4.3321    4.2740   53.1630 H       1  ZINC000051488227    0.1300
     42 H42        -2.0294    4.1466   52.3026 H       1  ZINC000051488227    0.1300
     43 H43         0.3012    4.4072   48.8109 H       1  ZINC000051488227    0.1300
     44 H44         0.3185    6.7557   48.0708 H       1  ZINC000051488227    0.1300
     45 H45         0.3354    7.2891   45.6670 H       1  ZINC000051488227    0.1200
     46 H46         0.3359    5.4738   44.0032 H       1  ZINC000051488227    0.1200
     47 H47         0.3232    3.1254   44.7432 H       1  ZINC000051488227    0.1300
     48 H48         1.6205    1.5611   45.6909 H       1  ZINC000051488227    0.0900
     49 H49         2.4396    1.9432   47.2256 H       1  ZINC000051488227    0.0900
     50 H50         2.3805   -0.5146   46.7854 H       1  ZINC000051488227    0.1000
     51 H51         1.4857   -0.0806   48.2618 H       1  ZINC000051488227    0.0500
     52 H52        -1.7435   -0.5209   46.6579 H       1  ZINC000051488227    0.1000
     53 H53        -0.9429   -0.0842   48.1867 H       1  ZINC000051488227    0.0700
     54 H54        -1.8370    1.9368   47.0933 H       1  ZINC000051488227    0.0900
     55 H55        -0.9234    1.5572   45.6123 H       1  ZINC000051488227    0.0900
@<TRIPOS>BOND
     1     1     2    2
     2     2     3    1
     3     2    19    1
     4     3     4    1
     5     4     5    1
     6     4    31    1
     7     4    32    1
     8     5    18   ar
     9     5     6   ar
    10     6     7   ar
    11     6    33    1
    12     7     8   ar
    13     7    34    1
    14     8     9    1
    15     8    17   ar
    16     9    10    1
    17    10    11    1
    18    10    35    1
    19    10    36    1
    20    11    16   ar
    21    11    12   ar
    22    12    13   ar
    23    12    37    1
    24    13    14   ar
    25    13    38    1
    26    14    15   ar
    27    14    39    1
    28    15    16   ar
    29    15    40    1
    30    17    18   ar
    31    17    41    1
    32    18    42    1
    33    19    30    1
    34    19    20    1
    35    19    26    1
    36    20    25   ar
    37    20    21   ar
    38    21    22   ar
    39    21    43    1
    40    22    23   ar
    41    22    44    1
    42    23    24   ar
    43    23    45    1
    44    24    25   ar
    45    24    46    1
    46    25    47    1
    47    26    27    1
    48    26    48    1
    49    26    49    1
    50    27    28    1
    51    27    50    1
    52    27    51    1
    53    28    29    1
    54    29    30    1
    55    29    52    1
    56    29    53    1
    57    30    54    1
    58    30    55    1
@<TRIPOS>SUBSTRUCTURE
     1 ZINC000051488227        1 TEMP              0 ****  ****    0 ROOT


##########                                Name:    ZINC000027473870
##########                DOCK_Rotatable_Bonds:                  10
##########                         Heavy_Atoms:                  31
##########                    Molecular_Weight:             422.502
##########                DOCK_Rotatable_Bonds:                  10
##########                       Formal_Charge:        -7.45058e-08
##########                     HBond_Acceptors:                   7
##########                        HBond_Donors:                   1
##########                         Heavy_Atoms:                  31
##########                          Grid_Score:          -36.082966
##########                     Grid_vdw_energy:          -36.627529
##########                      Grid_es_energy:            0.544562
##########           Internal_energy_repulsive:           18.286764

@<TRIPOS>MOLECULE
ZINC000027473870
 58 60 1 0 0
SMALL
USER_CHARGES


@<TRIPOS>ATOM
      1 C1         -9.3625    0.5387   55.1076 C.3     1  ZINC000027473870   -0.1400
      2 C2         -9.4858    0.9850   53.6493 C.3     1  ZINC000027473870   -0.0800
      3 C3         -8.6648    0.0736   52.7740 C.2     1  ZINC000027473870    0.1700
      4 C4         -7.3359    0.2410   52.4385 C.2     1  ZINC000027473870   -0.2900
      5 C5         -6.4567    1.3429   52.8696 C.2     1  ZINC000027473870    0.6000
      6 O6         -6.7102    1.9610   53.8857 O.2     1  ZINC000027473870   -0.5400
      7 N7         -5.3720    1.6655   52.1376 N.am    1  ZINC000027473870   -0.7200
      8 C8         -4.4974    2.7595   52.5670 C.3     1  ZINC000027473870    0.1600
      9 C9         -3.2078    2.7064   51.7891 C.ar    1  ZINC000027473870   -0.0900
     10 C10        -2.7881    1.5114   51.2321 C.ar    1  ZINC000027473870   -0.1100
     11 C11        -1.6083    1.4558   50.5192 C.ar    1  ZINC000027473870   -0.1100
     12 C12        -0.8378    2.6087   50.3601 C.ar    1  ZINC000027473870   -0.1200
     13 C13         0.4275    2.5566   49.5969 C.2     1  ZINC000027473870    0.5600
     14 O14         1.4892    2.4872   50.1845 O.2     1  ZINC000027473870   -0.5300
     15 N15         0.4035    2.5861   48.2496 N.am    1  ZINC000027473870   -0.6100
     16 C16         1.6572    2.5345   47.4935 C.3     1  ZINC000027473870    0.1100
     17 C17         2.2428    3.9434   47.3804 C.3     1  ZINC000027473870   -0.1700
     18 C18        -0.8763    2.6698   47.5415 C.3     1  ZINC000027473870    0.0900
     19 C19        -1.2571    1.2860   47.0112 C.3     1  ZINC000027473870   -0.1800
     20 C20        -1.2671    3.8111   50.9241 C.ar    1  ZINC000027473870   -0.0700
     21 C21        -2.4515    3.8540   51.6303 C.ar    1  ZINC000027473870   -0.1000
     22 C22        -6.9761   -0.8420   51.6049 C.2     1  ZINC000027473870    0.0900
     23 N23        -8.0252   -1.6034   51.4555 N.2     1  ZINC000027473870   -0.2800
     24 N24        -9.0898   -1.0561   52.1801 N.pl3   1  ZINC000027473870   -0.3100
     25 C25       -10.3837   -1.5898   52.2649 C.ar    1  ZINC000027473870    0.1300
     26 C26       -10.6000   -2.7842   52.9389 C.ar    1  ZINC000027473870   -0.0900
     27 C27       -11.8751   -3.3081   53.0218 C.ar    1  ZINC000027473870   -0.1300
     28 C28       -12.9376   -2.6428   52.4333 C.ar    1  ZINC000027473870    0.1100
     29 F29       -14.1844   -3.1566   52.5157 F       1  ZINC000027473870   -0.1300
     30 C30       -12.7237   -1.4513   51.7605 C.ar    1  ZINC000027473870   -0.1400
     31 C31       -11.4508   -0.9217   51.6800 C.ar    1  ZINC000027473870   -0.0700
     32 H32        -9.8840    1.2482   55.7500 H       1  ZINC000027473870    0.0700
     33 H33        -9.8057   -0.4503   55.2236 H       1  ZINC000027473870    0.0700
     34 H34        -8.3098    0.5004   55.3880 H       1  ZINC000027473870    0.0500
     35 H35       -10.5307    0.9392   53.3424 H       1  ZINC000027473870    0.1200
     36 H36        -9.1227    2.0080   53.5505 H       1  ZINC000027473870    0.0800
     37 H37        -5.1705    1.1733   51.3264 H       1  ZINC000027473870    0.4000
     38 H38        -4.9924    3.7133   52.3851 H       1  ZINC000027473870    0.0800
     39 H39        -4.2842    2.6579   53.6311 H       1  ZINC000027473870    0.0800
     40 H40        -3.3852    0.6201   51.3560 H       1  ZINC000027473870    0.1300
     41 H41        -1.2814    0.5223   50.0855 H       1  ZINC000027473870    0.1500
     42 H42         2.3661    1.8866   48.0091 H       1  ZINC000027473870    0.0800
     43 H43         1.4638    2.1402   46.4959 H       1  ZINC000027473870    0.0800
     44 H44         3.1756    3.9050   46.8178 H       1  ZINC000027473870    0.0700
     45 H45         1.5340    4.5913   46.8648 H       1  ZINC000027473870    0.0600
     46 H46         2.4363    4.3376   48.3781 H       1  ZINC000027473870    0.0600
     47 H47        -1.6480    3.0215   48.2261 H       1  ZINC000027473870    0.0800
     48 H48        -0.7854    3.3660   46.7077 H       1  ZINC000027473870    0.0900
     49 H49        -2.0574    1.3855   46.2779 H       1  ZINC000027473870    0.0700
     50 H50        -0.3884    0.8254   46.5407 H       1  ZINC000027473870    0.0700
     51 H51        -1.5968    0.6612   47.8372 H       1  ZINC000027473870    0.0600
     52 H52        -0.6752    4.7066   50.8049 H       1  ZINC000027473870    0.1300
     53 H53        -2.7851    4.7838   52.0669 H       1  ZINC000027473870    0.1300
     54 H54        -6.0030   -1.0097   51.1674 H       1  ZINC000027473870    0.1900
     55 H55        -9.7717   -3.3035   53.3978 H       1  ZINC000027473870    0.1500
     56 H56       -12.0438   -4.2373   53.5458 H       1  ZINC000027473870    0.1500
     57 H57       -13.5535   -0.9342   51.3018 H       1  ZINC000027473870    0.1500
     58 H58       -11.2845    0.0077   51.1556 H       1  ZINC000027473870    0.1400
@<TRIPOS>BOND
     1     1     2    1
     2     1    32    1
     3     1    33    1
     4     1    34    1
     5     2     3    1
     6     2    35    1
     7     2    36    1
     8     3    24    1
     9     3     4    2
    10     4     5    1
    11     4    22    1
    12     5     6    2
    13     5     7   am
    14     7     8    1
    15     7    37    1
    16     8     9    1
    17     8    38    1
    18     8    39    1
    19     9    21   ar
    20     9    10   ar
    21    10    11   ar
    22    10    40    1
    23    11    12   ar
    24    11    41    1
    25    12    13    1
    26    12    20   ar
    27    13    14    2
    28    13    15   am
    29    15    16    1
    30    15    18    1
    31    16    17    1
    32    16    42    1
    33    16    43    1
    34    17    44    1
    35    17    45    1
    36    17    46    1
    37    18    19    1
    38    18    47    1
    39    18    48    1
    40    19    49    1
    41    19    50    1
    42    19    51    1
    43    20    21   ar
    44    20    52    1
    45    21    53    1
    46    22    23    2
    47    22    54    1
    48    23    24    1
    49    24    25    1
    50    25    31   ar
    51    25    26   ar
    52    26    27   ar
    53    26    55    1
    54    27    28   ar
    55    27    56    1
    56    28    29    1
    57    28    30   ar
    58    30    31   ar
    59    30    57    1
    60    31    58    1
@<TRIPOS>SUBSTRUCTURE
     1 ZINC000027473870        1 TEMP              0 ****  ****    0 ROOT


##########                                Name:    ZINC000992031068
##########                DOCK_Rotatable_Bonds:                   8
##########                         Heavy_Atoms:                  25
##########                    Molecular_Weight:             342.401
##########                DOCK_Rotatable_Bonds:                   8
##########                       Formal_Charge:           0.0199999
##########                     HBond_Acceptors:                   8
##########                        HBond_Donors:                   2
##########                         Heavy_Atoms:                  25
##########                          Grid_Score:          -35.894943
##########                     Grid_vdw_energy:          -35.660194
##########                      Grid_es_energy:           -0.234749
##########           Internal_energy_repulsive:            7.970118

@<TRIPOS>MOLECULE
ZINC000992031068
 47 49 1 0 0
SMALL
USER_CHARGES


@<TRIPOS>ATOM
      1 C1         -6.1985    2.0619   52.6145 C.3     1  ZINC000992031068   -0.1100
      2 C2         -6.7199    0.7002   52.2334 C.ar    1  ZINC000992031068    0.1800
      3 C3         -8.0596    0.3858   52.4112 C.ar    1  ZINC000992031068   -0.1700
      4 C4         -8.4939   -0.8880   52.0427 C.ar    1  ZINC000992031068    0.1300
      5 C5         -9.9164   -1.2782   52.2103 C.2     1  ZINC000992031068    0.5700
      6 O6        -10.7695   -0.4232   52.3396 O.2     1  ZINC000992031068   -0.5200
      7 N7        -10.2613   -2.5810   52.2190 N.am    1  ZINC000992031068   -0.7100
      8 C8        -11.6653   -2.9661   52.3826 C.3     1  ZINC000992031068    0.1300
      9 C9        -11.8340   -3.7338   53.6951 C.3     1  ZINC000992031068   -0.1200
     10 C10       -11.4515   -2.9166   54.9405 C.3     1  ZINC000992031068   -0.1400
     11 C11       -12.6699   -3.5495   55.6332 C.3     1  ZINC000992031068    0.1200
     12 N12       -13.4153   -2.6142   56.4794 N.am    1  ZINC000992031068   -0.7200
     13 C13       -14.1719   -3.0789   57.4933 C.2     1  ZINC000992031068    0.5200
     14 O14       -14.2345   -4.2711   57.7062 O.2     1  ZINC000992031068   -0.5200
     15 C15       -14.9400   -2.1168   58.3625 C.3     1  ZINC000992031068   -0.0800
     16 C16       -14.5805   -2.3486   59.8075 C.2     1  ZINC000992031068    0.1000
     17 C17       -15.4204   -2.7707   60.7808 C.2     1  ZINC000992031068   -0.2500
     18 C18       -14.6914   -2.8559   61.9715 C.2     1  ZINC000992031068    0.0500
     19 N19       -13.4580   -2.4978   61.7219 N.2     1  ZINC000992031068   -0.2900
     20 N20       -13.3617   -2.1780   60.3614 N.pl3   1  ZINC000992031068   -0.3700
     21 C21       -12.1537   -1.7289   59.6650 C.3     1  ZINC000992031068    0.1000
     22 C22       -13.2754   -3.7285   54.2311 C.3     1  ZINC000992031068   -0.1400
     23 N23        -7.6118   -1.7472   51.5379 N.ar    1  ZINC000992031068   -0.5000
     24 C24        -6.3502   -1.4050   51.3872 C.ar    1  ZINC000992031068    0.3000
     25 N25        -5.9078   -0.2081   51.7206 N.ar    1  ZINC000992031068   -0.5100
     26 H26        -6.2836    2.7353   51.7615 H       1  ZINC000992031068    0.0900
     27 H27        -6.7823    2.4547   53.4469 H       1  ZINC000992031068    0.0900
     28 H28        -5.1526    1.9808   52.9104 H       1  ZINC000992031068    0.0900
     29 H29        -8.7483    1.1079   52.8243 H       1  ZINC000992031068    0.1600
     30 H30        -9.5799   -3.2638   52.1168 H       1  ZINC000992031068    0.4100
     31 H31       -12.2875   -2.0713   52.4024 H       1  ZINC000992031068    0.0700
     32 H32       -11.9676   -3.6003   51.5492 H       1  ZINC000992031068    0.0800
     33 H33       -11.3825   -4.7255   53.6665 H       1  ZINC000992031068    0.1000
     34 H34       -10.4981   -3.2104   55.3795 H       1  ZINC000992031068    0.0800
     35 H35       -11.5399   -1.8393   54.7998 H       1  ZINC000992031068    0.0900
     36 H36       -12.4461   -4.4897   56.1370 H       1  ZINC000992031068    0.1200
     37 H37       -13.3642   -1.6605   56.3099 H       1  ZINC000992031068    0.4000
     38 H38       -14.6864   -1.0939   58.0846 H       1  ZINC000992031068    0.1200
     39 H39       -16.0093   -2.2765   58.2240 H       1  ZINC000992031068    0.1100
     40 H40       -16.4687   -3.0008   60.6598 H       1  ZINC000992031068    0.1500
     41 H41       -15.0797   -3.1635   62.9312 H       1  ZINC000992031068    0.1800
     42 H42       -11.6134   -2.5938   59.2802 H       1  ZINC000992031068    0.0800
     43 H43       -12.4327   -1.0770   58.8371 H       1  ZINC000992031068    0.0800
     44 H44       -11.5162   -1.1816   60.3594 H       1  ZINC000992031068    0.0900
     45 H45       -13.8625   -2.8731   53.8965 H       1  ZINC000992031068    0.0900
     46 H46       -13.7944   -4.6776   54.0976 H       1  ZINC000992031068    0.0800
     47 H47        -5.6577   -2.1239   50.9749 H       1  ZINC000992031068    0.2100
@<TRIPOS>BOND
     1     1     2    1
     2     1    26    1
     3     1    27    1
     4     1    28    1
     5     2    25   ar
     6     2     3   ar
     7     3     4   ar
     8     3    29    1
     9     4     5    1
    10     4    23   ar
    11     5     6    2
    12     5     7   am
    13     7     8    1
    14     7    30    1
    15     8     9    1
    16     8    31    1
    17     8    32    1
    18     9    22    1
    19     9    10    1
    20     9    33    1
    21    10    11    1
    22    10    34    1
    23    10    35    1
    24    11    12    1
    25    11    22    1
    26    11    36    1
    27    12    13   am
    28    12    37    1
    29    13    14    2
    30    13    15    1
    31    15    16    1
    32    15    38    1
    33    15    39    1
    34    16    20    1
    35    16    17    2
    36    17    18    1
    37    17    40    1
    38    18    19    2
    39    18    41    1
    40    19    20    1
    41    20    21    1
    42    21    42    1
    43    21    43    1
    44    21    44    1
    45    22    45    1
    46    22    46    1
    47    23    24   ar
    48    24    25   ar
    49    24    47    1
@<TRIPOS>SUBSTRUCTURE
     1 ZINC000992031068        1 TEMP              0 ****  ****    0 ROOT


##########                                Name:    ZINC000508765459
##########                DOCK_Rotatable_Bonds:                  10
##########                         Heavy_Atoms:                  29
##########                    Molecular_Weight:               405.5
##########                DOCK_Rotatable_Bonds:                  10
##########                       Formal_Charge:         -6.4075e-07
##########                     HBond_Acceptors:                  10
##########                        HBond_Donors:                   1
##########                         Heavy_Atoms:                  29
##########                          Grid_Score:          -35.811440
##########                     Grid_vdw_energy:          -36.312481
##########                      Grid_es_energy:            0.501041
##########           Internal_energy_repulsive:           13.558720

@<TRIPOS>MOLECULE
ZINC000508765459
 60 62 1 0 0
SMALL
USER_CHARGES


@<TRIPOS>ATOM
      1 C1        -12.4565   -2.0922   51.6465 C.3     1  ZINC000508765459    0.0300
      2 O2        -11.1965   -2.1511   52.3180 O.3     1  ZINC000508765459   -0.3900
      3 C3        -10.3160   -1.0723   51.9974 C.3     1  ZINC000508765459    0.0500
      4 C4         -9.1342   -1.0725   52.9690 C.3     1  ZINC000508765459    0.1100
      5 N5         -8.1694   -0.0468   52.5648 N.am    1  ZINC000508765459   -0.5900
      6 C6         -6.9486   -0.4882   51.9043 C.3     1  ZINC000508765459    0.1000
      7 C7         -6.3326    0.6488   51.0867 C.3     1  ZINC000508765459    0.1200
      8 N8         -6.3171    1.8606   51.9235 N.am    1  ZINC000508765459   -0.6400
      9 C9         -5.1613    2.4694   52.2546 C.2     1  ZINC000508765459    0.7100
     10 O10        -5.1769    3.4680   52.9481 O.2     1  ZINC000508765459   -0.5800
     11 N11        -3.9879    1.9712   51.8169 N.am    1  ZINC000508765459   -0.7400
     12 C12        -2.7312    2.6319   52.1783 C.3     1  ZINC000508765459    0.1400
     13 C13        -1.6079    2.1211   51.2737 C.3     1  ZINC000508765459   -0.1400
     14 C14        -1.9357    2.4531   49.8166 C.3     1  ZINC000508765459    0.0600
     15 N15        -0.8530    1.9707   48.9490 N.3     1  ZINC000508765459   -0.5400
     16 C16         0.3003    2.8806   48.9904 C.3     1  ZINC000508765459    0.0500
     17 C17         1.4331    2.3033   48.1385 C.3     1  ZINC000508765459    0.0700
     18 N18         0.9603    2.1193   46.7592 N.3     1  ZINC000508765459   -0.4600
     19 C19         1.9805    1.6646   45.9417 C.ar    1  ZINC000508765459    0.4900
     20 N20         2.2616    0.3701   45.9174 N.ar    1  ZINC000508765459   -0.5500
     21 C21         3.2300   -0.0972   45.1471 C.ar    1  ZINC000508765459    0.1700
     22 C22         3.9531    0.7852   44.3600 C.ar    1  ZINC000508765459   -0.2600
     23 C23         3.6328    2.1329   44.4096 C.ar    1  ZINC000508765459    0.1700
     24 N24         2.6492    2.5337   45.1980 N.ar    1  ZINC000508765459   -0.5300
     25 C25        -0.1929    1.2094   46.7178 C.3     1  ZINC000508765459    0.0700
     26 C26        -1.3257    1.7867   47.5697 C.3     1  ZINC000508765459    0.0600
     27 C27        -7.6141    2.3796   52.3824 C.3     1  ZINC000508765459    0.1000
     28 C28        -8.4731    1.2261   52.8227 C.2     1  ZINC000508765459    0.5100
     29 O29        -9.4844    1.4637   53.4485 O.2     1  ZINC000508765459   -0.5400
     30 H30       -12.2954   -2.1181   50.5687 H       1  ZINC000508765459    0.0400
     31 H31       -13.0666   -2.9454   51.9431 H       1  ZINC000508765459    0.0900
     32 H32       -12.9686   -1.1683   51.9152 H       1  ZINC000508765459    0.0400
     33 H33        -9.9486   -1.1937   50.9784 H       1  ZINC000508765459    0.0500
     34 H34       -10.8538   -0.1277   52.0796 H       1  ZINC000508765459    0.0600
     35 H35        -9.4917   -0.8583   53.9762 H       1  ZINC000508765459    0.1100
     36 H36        -8.6523   -2.0503   52.9549 H       1  ZINC000508765459    0.0900
     37 H37        -6.2325   -0.8178   52.6570 H       1  ZINC000508765459    0.0700
     38 H38        -7.1806   -1.3218   51.2415 H       1  ZINC000508765459    0.1000
     39 H39        -5.3140    0.3862   50.8008 H       1  ZINC000508765459    0.1200
     40 H40        -6.9317    0.8261   50.1936 H       1  ZINC000508765459    0.0800
     41 H41        -3.9754    1.1752   51.2627 H       1  ZINC000508765459    0.4000
     42 H42        -2.8378    3.7093   52.0521 H       1  ZINC000508765459    0.0700
     43 H43        -2.4899    2.4099   53.2178 H       1  ZINC000508765459    0.0700
     44 H44        -0.6698    2.6003   51.5535 H       1  ZINC000508765459    0.0700
     45 H45        -1.5125    1.0413   51.3876 H       1  ZINC000508765459    0.0800
     46 H46        -2.8704    1.9685   49.5349 H       1  ZINC000508765459    0.0800
     47 H47        -2.0378    3.5326   49.7041 H       1  ZINC000508765459    0.0400
     48 H48         0.0093    3.8546   48.5968 H       1  ZINC000508765459    0.0500
     49 H49         0.6396    2.9908   50.0203 H       1  ZINC000508765459    0.0900
     50 H50         2.2790    2.9906   48.1442 H       1  ZINC000508765459    0.0900
     51 H51         1.7424    1.3417   48.5481 H       1  ZINC000508765459    0.0600
     52 H52         3.4546   -1.1535   45.1317 H       1  ZINC000508765459    0.1700
     53 H53         4.7492    0.4305   43.7221 H       1  ZINC000508765459    0.1500
     54 H54         4.1772    2.8465   43.8090 H       1  ZINC000508765459    0.1700
     55 H55        -0.5324    1.0991   45.6878 H       1  ZINC000508765459    0.1000
     56 H56         0.0980    0.2354   47.1113 H       1  ZINC000508765459    0.0500
     57 H57        -2.1716    1.0994   47.5639 H       1  ZINC000508765459    0.0900
     58 H58        -1.6351    2.7482   47.1600 H       1  ZINC000508765459    0.0500
     59 H59        -7.4591    3.0626   53.2177 H       1  ZINC000508765459    0.1100
     60 H60        -8.1067    2.9059   51.5649 H       1  ZINC000508765459    0.1100
@<TRIPOS>BOND
     1     1     2    1
     2     1    30    1
     3     1    31    1
     4     1    32    1
     5     2     3    1
     6     3     4    1
     7     3    33    1
     8     3    34    1
     9     4     5    1
    10     4    35    1
    11     4    36    1
    12     5    28   am
    13     5     6    1
    14     6     7    1
    15     6    37    1
    16     6    38    1
    17     7     8    1
    18     7    39    1
    19     7    40    1
    20     8     9   am
    21     8    27    1
    22     9    10    2
    23     9    11   am
    24    11    12    1
    25    11    41    1
    26    12    13    1
    27    12    42    1
    28    12    43    1
    29    13    14    1
    30    13    44    1
    31    13    45    1
    32    14    15    1
    33    14    46    1
    34    14    47    1
    35    15    26    1
    36    15    16    1
    37    16    17    1
    38    16    48    1
    39    16    49    1
    40    17    18    1
    41    17    50    1
    42    17    51    1
    43    18    19    1
    44    18    25    1
    45    19    24   ar
    46    19    20   ar
    47    20    21   ar
    48    21    22   ar
    49    21    52    1
    50    22    23   ar
    51    22    53    1
    52    23    24   ar
    53    23    54    1
    54    25    26    1
    55    25    55    1
    56    25    56    1
    57    26    57    1
    58    26    58    1
    59    27    28    1
    60    27    59    1
    61    27    60    1
    62    28    29    2
@<TRIPOS>SUBSTRUCTURE
     1 ZINC000508765459        1 TEMP              0 ****  ****    0 ROOT


##########                                Name:    ZINC000442864105
##########                DOCK_Rotatable_Bonds:                   7
##########                         Heavy_Atoms:                  30
##########                    Molecular_Weight:              414.39
##########                DOCK_Rotatable_Bonds:                   7
##########                       Formal_Charge:           0.0200001
##########                     HBond_Acceptors:                  10
##########                        HBond_Donors:                   2
##########                         Heavy_Atoms:                  30
##########                          Grid_Score:          -35.795116
##########                     Grid_vdw_energy:          -35.158234
##########                      Grid_es_energy:           -0.636882
##########           Internal_energy_repulsive:           11.047866

@<TRIPOS>MOLECULE
ZINC000442864105
 47 50 1 0 0
SMALL
USER_CHARGES


@<TRIPOS>ATOM
      1 C1         -6.9509   -1.4707   51.6475 C.3     1  ZINC000442864105    0.0800
      2 N2         -6.9915   -0.0991   52.1605 N.pl3   1  ZINC000442864105   -0.4900
      3 C3         -8.0949    0.5068   52.7012 C.2     1  ZINC000442864105    0.0300
      4 C4         -7.7926    1.7605   53.0720 C.2     1  ZINC000442864105   -0.1900
      5 C5         -6.3808    1.9766   52.7423 C.ar    1  ZINC000442864105   -0.1600
      6 C6         -5.5075    3.0568   52.8845 C.ar    1  ZINC000442864105   -0.0200
      7 C7         -4.2120    2.9433   52.4680 C.ar    1  ZINC000442864105   -0.2100
      8 C8         -3.7535    1.7551   51.9011 C.ar    1  ZINC000442864105    0.2400
      9 N9         -2.4243    1.6551   51.4798 N.pl3   1  ZINC000442864105   -0.7400
     10 C10        -1.4998    2.7698   51.7015 C.3     1  ZINC000442864105    0.1100
     11 C11        -0.1786    2.4649   51.0440 C.2     1  ZINC000442864105    0.5100
     12 O12         0.7342    3.2601   51.1193 O.2     1  ZINC000442864105   -0.5100
     13 N13        -0.0111    1.3086   50.3721 N.am    1  ZINC000442864105   -0.6600
     14 C14         1.2161    1.0254   49.7613 C.ar    1  ZINC000442864105    0.1600
     15 C15         2.3438    0.8004   50.5372 C.ar    1  ZINC000442864105   -0.0700
     16 C16         3.5544    0.5209   49.9319 C.ar    1  ZINC000442864105   -0.1600
     17 C17         4.7781    0.2766   50.7768 C.3     1  ZINC000442864105    0.5100
     18 F18         5.5011    1.4673   50.9057 F       1  ZINC000442864105   -0.1700
     19 F19         4.3883   -0.1718   52.0433 F       1  ZINC000442864105   -0.1700
     20 F20         5.5809   -0.6925   50.1655 F       1  ZINC000442864105   -0.1700
     21 C21         3.6460    0.4644   48.5532 C.ar    1  ZINC000442864105   -0.0600
     22 C22         2.5277    0.6879   47.7724 C.ar    1  ZINC000442864105   -0.1100
     23 C23         1.3076    0.9632   48.3711 C.ar    1  ZINC000442864105    0.1500
     24 N24         0.1715    1.1903   47.5807 N.pl3   1  ZINC000442864105   -0.3300
     25 C25        -1.0612    0.6828   47.7737 C.2     1  ZINC000442864105    0.2800
     26 N26        -1.8385    1.1334   46.8222 N.2     1  ZINC000442864105   -0.5300
     27 C27        -1.1433    1.9265   46.0078 C.2     1  ZINC000442864105    0.2300
     28 N28         0.0910    1.9971   46.4339 N.2     1  ZINC000442864105   -0.3400
     29 C29        -4.6043    0.6734   51.7525 C.ar    1  ZINC000442864105   -0.2100
     30 C30        -5.9248    0.7717   52.1766 C.ar    1  ZINC000442864105    0.1500
     31 H31        -6.6765   -2.1519   52.4529 H       1  ZINC000442864105    0.0700
     32 H32        -7.9325   -1.7430   51.2600 H       1  ZINC000442864105    0.0800
     33 H33        -6.2132   -1.5378   50.8478 H       1  ZINC000442864105    0.0800
     34 H34        -9.0643    0.0440   52.8127 H       1  ZINC000442864105    0.1700
     35 H35        -8.4628    2.4750   53.5266 H       1  ZINC000442864105    0.1400
     36 H36        -5.8562    3.9804   53.3225 H       1  ZINC000442864105    0.1200
     37 H37        -3.5380    3.7799   52.5783 H       1  ZINC000442864105    0.1200
     38 H38        -2.1141    0.8477   51.0408 H       1  ZINC000442864105    0.4100
     39 H39        -1.9182    3.6798   51.2717 H       1  ZINC000442864105    0.1000
     40 H40        -1.3492    2.9094   52.7720 H       1  ZINC000442864105    0.1000
     41 H41        -0.7410    0.6726   50.3119 H       1  ZINC000442864105    0.4300
     42 H42         2.2757    0.8437   51.6141 H       1  ZINC000442864105    0.1700
     43 H43         4.5943    0.2454   48.0852 H       1  ZINC000442864105    0.1500
     44 H44         2.6030    0.6433   46.6959 H       1  ZINC000442864105    0.1500
     45 H45        -1.3562    0.0194   48.5733 H       1  ZINC000442864105    0.2300
     46 H46        -1.5368    2.4328   45.1388 H       1  ZINC000442864105    0.2300
     47 H47        -4.2430   -0.2443   51.3126 H       1  ZINC000442864105    0.1200
@<TRIPOS>BOND
     1     1     2    1
     2     1    31    1
     3     1    32    1
     4     1    33    1
     5     2    30    1
     6     2     3    1
     7     3     4    2
     8     3    34    1
     9     4     5    1
    10     4    35    1
    11     5    30   ar
    12     5     6   ar
    13     6     7   ar
    14     6    36    1
    15     7     8   ar
    16     7    37    1
    17     8     9    1
    18     8    29   ar
    19     9    10    1
    20     9    38    1
    21    10    11    1
    22    10    39    1
    23    10    40    1
    24    11    12    2
    25    11    13   am
    26    13    14    1
    27    13    41    1
    28    14    23   ar
    29    14    15   ar
    30    15    16   ar
    31    15    42    1
    32    16    17    1
    33    16    21   ar
    34    17    18    1
    35    17    19    1
    36    17    20    1
    37    21    22   ar
    38    21    43    1
    39    22    23   ar
    40    22    44    1
    41    23    24    1
    42    24    28    1
    43    24    25    1
    44    25    26    2
    45    25    45    1
    46    26    27    1
    47    27    28    2
    48    27    46    1
    49    29    30   ar
    50    29    47    1
@<TRIPOS>SUBSTRUCTURE
     1 ZINC000442864105        1 TEMP              0 ****  ****    0 ROOT


##########                                Name:     oleObject17.pdb
##########                DOCK_Rotatable_Bonds:                   8
##########                         Heavy_Atoms:                  29
##########                    Molecular_Weight:             435.393
##########                DOCK_Rotatable_Bonds:                   8
##########                       Formal_Charge:         0.000400059
##########                     HBond_Acceptors:                   6
##########                        HBond_Donors:                   0
##########                         Heavy_Atoms:                  29
##########                          Grid_Score:          -35.712719
##########                     Grid_vdw_energy:          -35.793812
##########                      Grid_es_energy:            0.081093
##########           Internal_energy_repulsive:           20.250509

@<TRIPOS>MOLECULE
oleObject17.pdb
 57 59 1 0 0
SMALL
NO_CHARGES


@<TRIPOS>ATOM
      1 C           1.6435    0.6499   47.7029 C.3     1  UNL         0.0391
      2 C           2.3681    1.5183   46.6722 C.ar    1  UNL        -0.0277
      3 C           3.7033    1.2723   46.2638 C.ar    1  UNL        -0.0463
      4 C           4.3132    2.1368   45.3334 C.ar    1  UNL        -0.0590
      5 C           3.6140    3.2323   44.8064 C.ar    1  UNL        -0.0620
      6 C           2.2886    3.4664   45.1957 C.ar    1  UNL        -0.0619
      7 C           1.6704    2.6098   46.1185 C.ar    1  UNL        -0.0572
      8 C           4.5100    0.0918   46.7936 C.3     1  UNL        -0.0394
      9 N           0.1772    0.6409   47.5128 N.am    1  UNL        -0.3003
     10 C          -0.6445    1.5226   48.2146 C.2     1  UNL         0.2175
     11 O          -1.8420    1.3059   48.2916 O.2     1  UNL        -0.2772
     12 C           0.0590    2.5001   49.1929 C.3     1  UNL         0.0384
     13 C           0.3166    1.8706   50.5854 C.3     1  UNL        -0.0289
     14 C          -0.9992    1.6556   51.3582 C.3     1  UNL        -0.0010
     15 N          -1.7548    2.9173   51.5188 N.4     1  UNL        -0.3010
     16 C          -2.0058    3.6477   50.2542 C.3     1  UNL        -0.0010
     17 C          -0.7270    3.8243   49.3952 C.3     1  UNL        -0.0289
     18 C          -2.9547    2.7774   52.3753 C.3     1  UNL         0.0222
     19 C          -3.9918    1.7686   51.8294 C.3     1  UNL         0.0661
     20 O          -5.2007    1.9020   52.5958 O.3     1  UNL        -0.3432
     21 C          -6.2612    1.0234   52.4814 C.ar    1  UNL         0.0937
     22 C          -6.1742   -0.1549   51.7089 C.ar    1  UNL        -0.0288
     23 C          -7.2717   -1.0274   51.6239 C.ar    1  UNL        -0.0408
     24 C          -8.4615   -0.7284   52.3059 C.ar    1  UNL         0.0422
     25 C          -8.5574    0.4433   53.0729 C.ar    1  UNL        -0.0221
     26 C          -7.4610    1.3174   53.1604 C.ar    1  UNL         0.0723
     27 CL         -7.6118    2.7698   54.1318 Cl      1  UNL        -0.0814
     28 CL         -9.8275   -1.8180   52.1988 Cl      1  UNL        -0.0843
     29 C          -0.3477   -0.3502   46.5559 C.3     1  UNL         0.0031
     30 H           1.8553    0.9880   48.7234 H       1  UNL         0.0520
     31 H           2.0323   -0.3732   47.6252 H       1  UNL         0.0520
     32 H           5.3369    1.9614   45.0152 H       1  UNL         0.0626
     33 H           4.0969    3.8938   44.0926 H       1  UNL         0.0623
     34 H           1.7418    4.3104   44.7853 H       1  UNL         0.0623
     35 H           0.6442    2.8036   46.4164 H       1  UNL         0.0626
     36 H           3.9764   -0.8541   46.6393 H       1  UNL         0.0280
     37 H           4.7143    0.1986   47.8650 H       1  UNL         0.0280
     38 H           5.4779    0.0015   46.2854 H       1  UNL         0.0280
     39 H           1.0271    2.7604   48.7490 H       1  UNL         0.0402
     40 H           0.9650    2.5372   51.1686 H       1  UNL         0.0288
     41 H           0.8530    0.9200   50.4980 H       1  UNL         0.0288
     42 H          -0.7676    1.2305   52.3433 H       1  UNL         0.0431
     43 H          -1.6045    0.9230   50.8123 H       1  UNL         0.0431
     44 H          -2.4183    4.6398   50.4781 H       1  UNL         0.0431
     45 H          -2.7576    3.1143   49.6618 H       1  UNL         0.0431
     46 H          -0.0721    4.5492   49.8958 H       1  UNL         0.0288
     47 H          -0.9887    4.2615   48.4231 H       1  UNL         0.0288
     48 H          -3.4401    3.7552   52.4885 H       1  UNL         0.0455
     49 H          -2.6463    2.4513   53.3769 H       1  UNL         0.0455
     50 H          -3.6079    0.7469   51.9290 H       1  UNL         0.0586
     51 H          -4.1917    1.9714   50.7703 H       1  UNL         0.0586
     52 H          -5.2659   -0.4045   51.1703 H       1  UNL         0.0651
     53 H          -7.1986   -1.9332   51.0286 H       1  UNL         0.0639
     54 H          -9.4790    0.6738   53.5998 H       1  UNL         0.0655
     55 H           0.2583   -1.2646   46.5856 H       1  UNL         0.0433
     56 H          -0.3238    0.0586   45.5386 H       1  UNL         0.0433
     57 H          -1.3796   -0.6175   46.8146 H       1  UNL         0.0433
@<TRIPOS>BOND
     1     1     2    1
     2     1     9    1
     3     1    30    1
     4     1    31    1
     5     2     3   ar
     6     2     7   ar
     7     3     4   ar
     8     3     8    1
     9     4     5   ar
    10     4    32    1
    11     5     6   ar
    12     5    33    1
    13     6     7   ar
    14     6    34    1
    15     7    35    1
    16     8    36    1
    17     8    37    1
    18     8    38    1
    19     9    10   am
    20     9    29    1
    21    10    11    2
    22    10    12    1
    23    12    13    1
    24    12    17    1
    25    12    39    1
    26    13    14    1
    27    13    40    1
    28    13    41    1
    29    14    15    1
    30    14    42    1
    31    14    43    1
    32    15    16    1
    33    15    18    1
    34    16    17    1
    35    16    44    1
    36    16    45    1
    37    17    46    1
    38    17    47    1
    39    18    19    1
    40    18    48    1
    41    18    49    1
    42    19    20    1
    43    19    50    1
    44    19    51    1
    45    20    21    1
    46    21    22   ar
    47    21    26   ar
    48    22    23   ar
    49    22    52    1
    50    23    24   ar
    51    23    53    1
    52    24    25   ar
    53    24    28    1
    54    25    26   ar
    55    25    54    1
    56    26    27    1
    57    29    55    1
    58    29    56    1
    59    29    57    1
@<TRIPOS>SUBSTRUCTURE
     1 UNL         1 TEMP              0 ****  ****    0 ROOT


##########                                Name:    ZINC001127302705
##########                DOCK_Rotatable_Bonds:                   9
##########                         Heavy_Atoms:                  28
##########                    Molecular_Weight:             398.892
##########                DOCK_Rotatable_Bonds:                   9
##########                       Formal_Charge:          -0.0200002
##########                     HBond_Acceptors:                   7
##########                        HBond_Donors:                   1
##########                         Heavy_Atoms:                  28
##########                          Grid_Score:          -35.653877
##########                     Grid_vdw_energy:          -35.464603
##########                      Grid_es_energy:           -0.189276
##########           Internal_energy_repulsive:           30.277111

@<TRIPOS>MOLECULE
ZINC001127302705
 51 53 1 0 0
SMALL
USER_CHARGES


@<TRIPOS>ATOM
      1 C1        -12.3568    0.6288   53.4896 C.3     1  ZINC001127302705   -0.1500
      2 C2        -12.2279   -0.2835   52.2680 C.3     1  ZINC001127302705   -0.1400
      3 C3        -11.5848   -1.6074   52.6857 C.3     1  ZINC001127302705    0.1800
      4 C4        -12.3522   -2.7694   52.0519 C.3     1  ZINC001127302705   -0.1600
      5 C5        -10.1298   -1.6391   52.2135 C.3     1  ZINC001127302705    0.0700
      6 O6         -9.4460   -0.4824   52.6999 O.3     1  ZINC001127302705   -0.2800
      7 C7         -8.1356   -0.3575   52.3703 C.ar    1  ZINC001127302705    0.3400
      8 N8         -7.4715   -1.4069   51.9165 N.ar    1  ZINC001127302705   -0.5300
      9 C9         -6.1967   -1.3292   51.5841 C.ar    1  ZINC001127302705    0.1400
     10 C10        -5.5059   -0.1397   51.7000 C.ar    1  ZINC001127302705   -0.2000
     11 C11        -6.1665    0.9861   52.1725 C.ar    1  ZINC001127302705   -0.0300
     12 C12        -7.5053    0.8741   52.5076 C.ar    1  ZINC001127302705   -0.1100
     13 Cl13       -8.3814    2.2492   53.1036 Cl      1  ZINC001127302705   -0.0400
     14 N14       -11.6274   -1.7322   54.1449 N.am    1  ZINC001127302705   -0.7100
     15 C15       -11.1183   -2.8276   54.7427 C.2     1  ZINC001127302705    0.6200
     16 O16       -10.6223   -3.7115   54.0712 O.2     1  ZINC001127302705   -0.5200
     17 C17       -11.1628   -2.9543   56.2135 C.2     1  ZINC001127302705   -0.0200
     18 N18       -11.6834   -2.0882   57.0600 N.2     1  ZINC001127302705   -0.2500
     19 N19       -11.5499   -2.5142   58.2647 N.pl3   1  ZINC001127302705   -0.2800
     20 C20       -12.0139   -1.8059   59.4601 C.3     1  ZINC001127302705    0.1600
     21 C21       -13.3926   -2.2906   59.8277 C.ar    1  ZINC001127302705   -0.1200
     22 C22       -13.7918   -2.3003   61.1511 C.ar    1  ZINC001127302705   -0.1000
     23 C23       -15.0565   -2.7450   61.4882 C.ar    1  ZINC001127302705   -0.1200
     24 C24       -15.9221   -3.1796   60.5020 C.ar    1  ZINC001127302705   -0.1100
     25 C25       -15.5232   -3.1690   59.1785 C.ar    1  ZINC001127302705   -0.1200
     26 C26       -14.2600   -2.7203   58.8409 C.ar    1  ZINC001127302705   -0.0800
     27 C27       -10.9206   -3.7090   58.2704 C.2     1  ZINC001127302705   -0.0200
     28 C28       -10.6603   -4.0313   56.9816 C.2     1  ZINC001127302705   -0.1800
     29 H29       -11.3678    0.8205   53.9058 H       1  ZINC001127302705    0.0500
     30 H30       -12.8149    1.5719   53.1921 H       1  ZINC001127302705    0.0600
     31 H31       -12.9794    0.1436   54.2413 H       1  ZINC001127302705    0.0500
     32 H32       -13.2169   -0.4753   51.8519 H       1  ZINC001127302705    0.0900
     33 H33       -11.6053    0.2017   51.5163 H       1  ZINC001127302705    0.0800
     34 H34       -12.3205   -2.6767   50.9663 H       1  ZINC001127302705    0.0700
     35 H35       -11.8940   -3.7127   52.3495 H       1  ZINC001127302705    0.0500
     36 H36       -13.3887   -2.7469   52.3884 H       1  ZINC001127302705    0.0800
     37 H37        -9.6433   -2.5365   52.5958 H       1  ZINC001127302705    0.0800
     38 H38       -10.1016   -1.6465   51.1240 H       1  ZINC001127302705    0.0700
     39 H39        -5.6871   -2.2079   51.2169 H       1  ZINC001127302705    0.1700
     40 H40        -4.4626   -0.0856   51.4262 H       1  ZINC001127302705    0.1500
     41 H41        -5.6491    1.9289   52.2727 H       1  ZINC001127302705    0.1500
     42 H42       -12.0220   -1.0265   54.6806 H       1  ZINC001127302705    0.4100
     43 H43       -11.3288   -1.9986   60.2855 H       1  ZINC001127302705    0.1000
     44 H44       -12.0471   -0.7352   59.2580 H       1  ZINC001127302705    0.1100
     45 H45       -13.1156   -1.9607   61.9216 H       1  ZINC001127302705    0.1200
     46 H46       -15.3682   -2.7531   62.5223 H       1  ZINC001127302705    0.1300
     47 H47       -16.9100   -3.5276   60.7655 H       1  ZINC001127302705    0.1200
     48 H48       -16.1993   -3.5089   58.4080 H       1  ZINC001127302705    0.1300
     49 H49       -13.9484   -2.7121   57.8069 H       1  ZINC001127302705    0.1300
     50 H50       -10.6752   -4.2997   59.1406 H       1  ZINC001127302705    0.1800
     51 H51       -10.1664   -4.9197   56.6170 H       1  ZINC001127302705    0.1600
@<TRIPOS>BOND
     1     1     2    1
     2     1    29    1
     3     1    30    1
     4     1    31    1
     5     2     3    1
     6     2    32    1
     7     2    33    1
     8     3     4    1
     9     3     5    1
    10     3    14    1
    11     4    34    1
    12     4    35    1
    13     4    36    1
    14     5     6    1
    15     5    37    1
    16     5    38    1
    17     6     7    1
    18     7    12   ar
    19     7     8   ar
    20     8     9   ar
    21     9    10   ar
    22     9    39    1
    23    10    11   ar
    24    10    40    1
    25    11    12   ar
    26    11    41    1
    27    12    13    1
    28    14    15   am
    29    14    42    1
    30    15    16    2
    31    15    17    1
    32    17    28    1
    33    17    18    2
    34    18    19    1
    35    19    20    1
    36    19    27    1
    37    20    21    1
    38    20    43    1
    39    20    44    1
    40    21    26   ar
    41    21    22   ar
    42    22    23   ar
    43    22    45    1
    44    23    24   ar
    45    23    46    1
    46    24    25   ar
    47    24    47    1
    48    25    26   ar
    49    25    48    1
    50    26    49    1
    51    27    28    2
    52    27    50    1
    53    28    51    1
@<TRIPOS>SUBSTRUCTURE
     1 ZINC001127302705        1 TEMP              0 ****  ****    0 ROOT


##########                                Name:    ZINC000434204837
##########                DOCK_Rotatable_Bonds:                   7
##########                         Heavy_Atoms:                  29
##########                    Molecular_Weight:             406.511
##########                DOCK_Rotatable_Bonds:                   7
##########                       Formal_Charge:          -0.0200002
##########                     HBond_Acceptors:                   8
##########                        HBond_Donors:                   0
##########                         Heavy_Atoms:                  29
##########                          Grid_Score:          -35.523911
##########                     Grid_vdw_energy:          -35.231346
##########                      Grid_es_energy:           -0.292564
##########           Internal_energy_repulsive:           13.085418

@<TRIPOS>MOLECULE
ZINC000434204837
 51 54 1 0 0
SMALL
USER_CHARGES


@<TRIPOS>ATOM
      1 C1         -7.5206    2.8776   53.0032 C.3     1  ZINC000434204837   -0.1300
      2 C2         -7.3617    1.4696   52.4899 C.ar    1  ZINC000434204837   -0.0700
      3 C3         -6.0989    0.9341   52.3207 C.ar    1  ZINC000434204837   -0.1200
      4 C4         -5.9531   -0.3577   51.8499 C.ar    1  ZINC000434204837   -0.1100
      5 C5         -7.0703   -1.1136   51.5486 C.ar    1  ZINC000434204837   -0.1300
      6 C6         -8.3336   -0.5782   51.7187 C.ar    1  ZINC000434204837   -0.0900
      7 C7         -8.4794    0.7116   52.1936 C.ar    1  ZINC000434204837   -0.1000
      8 C8         -9.8564    1.2952   52.3790 C.3     1  ZINC000434204837    0.0100
      9 C9        -10.8539    0.1806   52.5623 C.2     1  ZINC000434204837    0.2000
     10 N10       -11.2301   -0.3515   53.7002 N.2     1  ZINC000434204837   -0.4600
     11 C11       -12.1257   -1.3014   53.3773 C.2     1  ZINC000434204837    0.1700
     12 C12       -12.8557   -2.2030   54.3392 C.3     1  ZINC000434204837   -0.0300
     13 S13       -11.8431   -3.6632   54.6840 S.3     1  ZINC000434204837    0.0900
     14 C14       -12.8586   -4.4639   55.8809 C.2     1  ZINC000434204837    0.2100
     15 N15       -13.7045   -5.4464   55.6575 N.2     1  ZINC000434204837   -0.3300
     16 N16       -14.2837   -5.7984   56.7482 N.2     1  ZINC000434204837   -0.0200
     17 N17       -13.8610   -5.0821   57.7329 N.2     1  ZINC000434204837   -0.0700
     18 N18       -12.9117   -4.1876   57.2083 N.pl3   1  ZINC000434204837   -0.3100
     19 C19       -12.1824   -3.2140   57.9055 C.ar    1  ZINC000434204837    0.1100
     20 C20       -10.8730   -3.4686   58.2903 C.ar    1  ZINC000434204837   -0.1100
     21 C21       -10.1569   -2.5074   58.9767 C.ar    1  ZINC000434204837   -0.0900
     22 C22       -10.7432   -1.2925   59.2809 C.ar    1  ZINC000434204837   -0.0600
     23 C23        -9.9591   -0.2459   60.0299 C.3     1  ZINC000434204837   -0.0600
     24 C24        -9.4657   -0.8295   61.3553 C.3     1  ZINC000434204837   -0.1500
     25 C25        -8.7593    0.1924   59.1876 C.3     1  ZINC000434204837   -0.1500
     26 C26       -12.0472   -1.0360   58.8990 C.ar    1  ZINC000434204837   -0.1000
     27 C27       -12.7663   -1.9912   58.2076 C.ar    1  ZINC000434204837   -0.0900
     28 N28       -12.2463   -1.2987   52.0834 N.2     1  ZINC000434204837   -0.3600
     29 O29       -11.5284   -0.4507   51.5966 O.3     1  ZINC000434204837    0.0900
     30 H30        -7.5750    2.8635   54.0917 H       1  ZINC000434204837    0.0800
     31 H31        -6.6659    3.4772   52.6899 H       1  ZINC000434204837    0.0700
     32 H32        -8.4358    3.3105   52.5993 H       1  ZINC000434204837    0.0700
     33 H33        -5.2259    1.5248   52.5561 H       1  ZINC000434204837    0.1300
     34 H34        -4.9663   -0.7758   51.7170 H       1  ZINC000434204837    0.1200
     35 H35        -6.9565   -2.1224   51.1802 H       1  ZINC000434204837    0.1300
     36 H36        -9.2066   -1.1688   51.4831 H       1  ZINC000434204837    0.1300
     37 H37        -9.8633    1.9375   53.2596 H       1  ZINC000434204837    0.1200
     38 H38       -10.1240    1.8813   51.4997 H       1  ZINC000434204837    0.1200
     39 H39       -13.0461   -1.6654   55.2680 H       1  ZINC000434204837    0.1300
     40 H40       -13.8029   -2.5136   53.8983 H       1  ZINC000434204837    0.1400
     41 H41       -10.4149   -4.4175   58.0536 H       1  ZINC000434204837    0.1400
     42 H42        -9.1383   -2.7049   59.2762 H       1  ZINC000434204837    0.1400
     43 H43       -10.5982    0.6147   60.2273 H       1  ZINC000434204837    0.0800
     44 H44        -8.8266   -1.6902   61.1578 H       1  ZINC000434204837    0.0600
     45 H45        -8.8987   -0.0725   61.8970 H       1  ZINC000434204837    0.0600
     46 H46       -10.3205   -1.1418   61.9554 H       1  ZINC000434204837    0.0600
     47 H47        -9.1108    0.6082   58.2433 H       1  ZINC000434204837    0.0600
     48 H48        -8.1923    0.9494   59.7292 H       1  ZINC000434204837    0.0600
     49 H49        -8.1203   -0.6682   58.9902 H       1  ZINC000434204837    0.0600
     50 H50       -12.5025   -0.0863   59.1384 H       1  ZINC000434204837    0.1400
     51 H51       -13.7847   -1.7902   57.9095 H       1  ZINC000434204837    0.1400
@<TRIPOS>BOND
     1     1     2    1
     2     1    30    1
     3     1    31    1
     4     1    32    1
     5     2     7   ar
     6     2     3   ar
     7     3     4   ar
     8     3    33    1
     9     4     5   ar
    10     4    34    1
    11     5     6   ar
    12     5    35    1
    13     6     7   ar
    14     6    36    1
    15     7     8    1
    16     8     9    1
    17     8    37    1
    18     8    38    1
    19     9    29    1
    20     9    10    2
    21    10    11    1
    22    11    12    1
    23    11    28    2
    24    12    13    1
    25    12    39    1
    26    12    40    1
    27    13    14    1
    28    14    18    1
    29    14    15    2
    30    15    16    1
    31    16    17    2
    32    17    18    1
    33    18    19    1
    34    19    27   ar
    35    19    20   ar
    36    20    21   ar
    37    20    41    1
    38    21    22   ar
    39    21    42    1
    40    22    23    1
    41    22    26   ar
    42    23    24    1
    43    23    25    1
    44    23    43    1
    45    24    44    1
    46    24    45    1
    47    24    46    1
    48    25    47    1
    49    25    48    1
    50    25    49    1
    51    26    27   ar
    52    26    50    1
    53    27    51    1
    54    28    29    1
@<TRIPOS>SUBSTRUCTURE
     1 ZINC000434204837        1 TEMP              0 ****  ****    0 ROOT


##########                                Name:     oleObject27.pdb
##########                DOCK_Rotatable_Bonds:                   9
##########                         Heavy_Atoms:                  35
##########                    Molecular_Weight:             513.466
##########                DOCK_Rotatable_Bonds:                   9
##########                       Formal_Charge:         0.000199873
##########                     HBond_Acceptors:                   8
##########                        HBond_Donors:                   1
##########                         Heavy_Atoms:                  35
##########                          Grid_Score:          -35.513756
##########                     Grid_vdw_energy:          -35.525505
##########                      Grid_es_energy:            0.011748
##########           Internal_energy_repulsive:           20.764263

@<TRIPOS>MOLECULE
oleObject27.pdb
 65 68 1 0 0
SMALL
NO_CHARGES


@<TRIPOS>ATOM
      1 C          -8.5372   -0.3303   62.3580 C.ar    1  UNL        -0.0620
      2 C          -9.6855    0.1125   63.0303 C.ar    1  UNL        -0.0590
      3 C         -10.9631   -0.0602   62.4629 C.ar    1  UNL        -0.0456
      4 C         -11.0910   -0.6946   61.2021 C.ar    1  UNL        -0.0187
      5 C          -9.9246   -1.1250   60.5323 C.ar    1  UNL        -0.0565
      6 C          -8.6570   -0.9468   61.1059 C.ar    1  UNL        -0.0619
      7 C         -12.4687   -0.9018   60.5530 C.3     1  UNL         0.0921
      8 C         -13.1287    0.4158   60.1345 C.ar    1  UNL         0.0681
      9 C         -14.3938    0.8175   60.6319 C.ar    1  UNL        -0.0272
     10 C         -14.9306    2.0390   60.1833 C.ar    1  UNL        -0.0559
     11 C         -14.2062    2.8060   59.2593 C.ar    1  UNL        -0.0435
     12 C         -12.9687    2.3231   58.8081 C.ar    1  UNL         0.0272
     13 N         -12.4464    1.1567   59.2312 N.ar    1  UNL        -0.2587
     14 C         -15.1889   -0.0309   61.6178 C.3     1  UNL        -0.0379
     15 N         -12.4328   -1.8366   59.4190 N.am    1  UNL        -0.2865
     16 C         -13.5352   -2.5295   58.9524 C.2     1  UNL         0.3014
     17 O         -14.6349   -2.4104   59.4667 O.2     1  UNL        -0.2541
     18 N         -13.3002   -3.3716   57.8638 N.am    1  UNL        -0.2833
     19 C         -14.3790   -4.1871   57.2420 C.3     1  UNL         0.0284
     20 C         -13.8866   -5.3179   56.3064 C.3     1  UNL         0.0142
     21 N         -12.8382   -4.8647   55.3759 N.4     1  UNL        -0.2979
     22 C         -11.6869   -4.3575   56.1483 C.3     1  UNL         0.0142
     23 C         -12.0721   -3.1673   57.0568 C.3     1  UNL         0.0284
     24 C         -13.3518   -3.9636   54.3163 C.3     1  UNL         0.0223
     25 C         -12.2705   -3.5371   53.3030 C.3     1  UNL         0.0661
     26 O         -11.9880   -2.1448   53.5281 O.3     1  UNL        -0.3432
     27 C         -10.7846   -1.5469   53.2071 C.ar    1  UNL         0.0937
     28 C          -9.8582   -2.1522   52.3311 C.ar    1  UNL        -0.0288
     29 C          -8.6454   -1.5096   52.0310 C.ar    1  UNL        -0.0408
     30 C          -8.3506   -0.2617   52.6022 C.ar    1  UNL         0.0422
     31 C          -9.2669    0.3469   53.4740 C.ar    1  UNL        -0.0221
     32 C         -10.4805   -0.2931   53.7758 C.ar    1  UNL         0.0723
     33 CL        -11.6034    0.4941   54.8690 Cl      1  UNL        -0.0814
     34 CL         -6.8385    0.5364   52.2262 Cl      1  UNL        -0.0843
     35 C         -12.1773    0.4546   63.2288 C.3     1  UNL        -0.0394
     36 H          -7.5568   -0.1904   62.8044 H       1  UNL         0.0623
     37 H          -9.5796    0.5952   63.9976 H       1  UNL         0.0626
     38 H          -9.9942   -1.5957   59.5561 H       1  UNL         0.0627
     39 H          -7.7696   -1.2845   60.5786 H       1  UNL         0.0623
     40 H         -13.1046   -1.3743   61.3073 H       1  UNL         0.0625
     41 H         -15.8956    2.3871   60.5408 H       1  UNL         0.0627
     42 H         -14.5971    3.7516   58.8956 H       1  UNL         0.0639
     43 H         -12.3774    2.8858   58.0867 H       1  UNL         0.0840
     44 H         -15.3160   -1.0552   61.2455 H       1  UNL         0.0280
     45 H         -16.1916    0.3805   61.7890 H       1  UNL         0.0280
     46 H         -14.6840   -0.0822   62.5903 H       1  UNL         0.0280
     47 H         -11.5400   -2.0144   58.9808 H       1  UNL         0.1521
     48 H         -15.0278   -3.5106   56.6711 H       1  UNL         0.0484
     49 H         -14.9907   -4.6532   58.0242 H       1  UNL         0.0484
     50 H         -14.7386   -5.7307   55.7510 H       1  UNL         0.0447
     51 H         -13.4835   -6.1271   56.9293 H       1  UNL         0.0447
     52 H         -10.8634   -4.0644   55.4868 H       1  UNL         0.0447
     53 H         -11.3071   -5.1647   56.7880 H       1  UNL         0.0447
     54 H         -12.2212   -2.2764   56.4337 H       1  UNL         0.0484
     55 H         -11.2275   -2.9615   57.7268 H       1  UNL         0.0484
     56 H         -13.7960   -3.0629   54.7586 H       1  UNL         0.0455
     57 H         -14.1452   -4.4805   53.7611 H       1  UNL         0.0455
     58 H         -12.6439   -3.6906   52.2825 H       1  UNL         0.0586
     59 H         -11.3606   -4.1320   53.4482 H       1  UNL         0.0586
     60 H         -10.0656   -3.1160   51.8778 H       1  UNL         0.0652
     61 H          -7.9356   -1.9798   51.3562 H       1  UNL         0.0639
     62 H          -9.0378    1.3127   53.9154 H       1  UNL         0.0655
     63 H         -11.8844    1.0046   64.1317 H       1  UNL         0.0280
     64 H         -12.8236   -0.3734   63.5458 H       1  UNL         0.0280
     65 H         -12.7735    1.1384   62.6122 H       1  UNL         0.0280
@<TRIPOS>BOND
     1     1     2   ar
     2     1     6   ar
     3     1    36    1
     4     2     3   ar
     5     2    37    1
     6     3     4   ar
     7     3    35    1
     8     4     5   ar
     9     4     7    1
    10     5     6   ar
    11     5    38    1
    12     6    39    1
    13     7     8    1
    14     7    15    1
    15     7    40    1
    16     8     9   ar
    17     8    13   ar
    18     9    10   ar
    19     9    14    1
    20    10    11   ar
    21    10    41    1
    22    11    12   ar
    23    11    42    1
    24    12    13   ar
    25    12    43    1
    26    14    44    1
    27    14    45    1
    28    14    46    1
    29    15    16   am
    30    15    47    1
    31    16    17    2
    32    16    18   am
    33    18    19    1
    34    18    23    1
    35    19    20    1
    36    19    48    1
    37    19    49    1
    38    20    21    1
    39    20    50    1
    40    20    51    1
    41    21    22    1
    42    21    24    1
    43    22    23    1
    44    22    52    1
    45    22    53    1
    46    23    54    1
    47    23    55    1
    48    24    25    1
    49    24    56    1
    50    24    57    1
    51    25    26    1
    52    25    58    1
    53    25    59    1
    54    26    27    1
    55    27    28   ar
    56    27    32   ar
    57    28    29   ar
    58    28    60    1
    59    29    30   ar
    60    29    61    1
    61    30    31   ar
    62    30    34    1
    63    31    32   ar
    64    31    62    1
    65    32    33    1
    66    35    63    1
    67    35    64    1
    68    35    65    1
@<TRIPOS>SUBSTRUCTURE
     1 UNL         1 TEMP              0 ****  ****    0 ROOT


##########                                Name:    ZINC000509132103
##########                DOCK_Rotatable_Bonds:                   7
##########                         Heavy_Atoms:                  29
##########                    Molecular_Weight:              405.52
##########                DOCK_Rotatable_Bonds:                   7
##########                       Formal_Charge:          -0.0499998
##########                     HBond_Acceptors:                   6
##########                        HBond_Donors:                   0
##########                         Heavy_Atoms:                  29
##########                          Grid_Score:          -35.507214
##########                     Grid_vdw_energy:          -36.422184
##########                      Grid_es_energy:            0.914969
##########           Internal_energy_repulsive:           13.345251

@<TRIPOS>MOLECULE
ZINC000509132103
 52 55 1 0 0
SMALL
USER_CHARGES


@<TRIPOS>ATOM
      1 C1        -12.5981   -3.5407   53.6865 C.3     1  ZINC000509132103    0.0300
      2 O2        -12.3634   -2.1420   53.5115 O.3     1  ZINC000509132103   -0.3000
      3 C3        -11.1312   -1.7736   53.0790 C.ar    1  ZINC000509132103    0.2700
      4 C4        -10.8301   -0.4273   52.8907 C.ar    1  ZINC000509132103   -0.1300
      5 C5         -9.5569   -0.1025   52.4473 C.ar    1  ZINC000509132103   -0.0700
      6 C6         -8.6623   -1.1378   52.2189 C.ar    1  ZINC000509132103    0.0500
      7 C7         -7.2668   -0.8357   51.7371 C.3     1  ZINC000509132103   -0.0500
      8 S8         -6.7210    0.7526   52.4225 S.3     1  ZINC000509132103   -0.1500
      9 C9         -5.0503    0.9388   51.7408 C.3     1  ZINC000509132103   -0.1300
     10 C10        -4.4582    2.2423   52.2111 C.2     1  ZINC000509132103    0.5400
     11 O11        -5.1298    3.0130   52.8637 O.2     1  ZINC000509132103   -0.5100
     12 N12        -3.1822    2.5516   51.9066 N.am    1  ZINC000509132103   -0.6100
     13 C13        -2.5765    3.8122   52.3493 C.3     1  ZINC000509132103    0.1500
     14 C14        -1.8036    4.4312   51.2118 C.ar    1  ZINC000509132103   -0.1000
     15 C15        -1.3649    5.7391   51.3632 C.ar    1  ZINC000509132103   -0.1100
     16 C16        -0.6439    6.3565   50.3613 C.ar    1  ZINC000509132103   -0.1200
     17 C17        -0.3558    5.6659   49.1992 C.ar    1  ZINC000509132103   -0.1200
     18 C18        -0.7948    4.3671   49.0460 C.ar    1  ZINC000509132103   -0.1100
     19 C19        -1.5260    3.7451   50.0503 C.ar    1  ZINC000509132103   -0.0600
     20 C20        -1.9950    2.3357   49.8019 C.3     1  ZINC000509132103   -0.0200
     21 H21        -2.8793    2.3592   49.1652 H       1  ZINC000509132103    0.1000
     22 C22        -0.9030    1.5655   49.1052 C.ar    1  ZINC000509132103   -0.0800
     23 C23        -1.1688    0.9113   47.9169 C.ar    1  ZINC000509132103   -0.1100
     24 C24        -0.1671    0.2048   47.2778 C.ar    1  ZINC000509132103   -0.1200
     25 C25         1.1005    0.1528   47.8269 C.ar    1  ZINC000509132103   -0.1200
     26 C26         1.3663    0.8078   49.0148 C.ar    1  ZINC000509132103   -0.1200
     27 C27         0.3659    1.5179   49.6517 C.ar    1  ZINC000509132103   -0.1100
     28 C28        -2.3387    1.6352   51.1217 C.3     1  ZINC000509132103    0.1200
     29 N29        -9.0334   -2.3862   52.4240 N.ar    1  ZINC000509132103   -0.1900
     30 N30       -10.2087   -2.6920   52.8395 N.ar    1  ZINC000509132103   -0.3000
     31 H31       -11.8987   -3.9373   54.4225 H       1  ZINC000509132103    0.0600
     32 H32       -13.6192   -3.6971   54.0345 H       1  ZINC000509132103    0.1000
     33 H33       -12.4556   -4.0548   52.7359 H       1  ZINC000509132103    0.0600
     34 H34       -11.5653    0.3400   53.0835 H       1  ZINC000509132103    0.1600
     35 H35        -9.2703    0.9260   52.2844 H       1  ZINC000509132103    0.1600
     36 H36        -6.5903   -1.6248   52.0655 H       1  ZINC000509132103    0.1100
     37 H37        -7.2618   -0.7826   50.6484 H       1  ZINC000509132103    0.1000
     38 H38        -4.4255    0.1125   52.0798 H       1  ZINC000509132103    0.1100
     39 H39        -5.0996    0.9340   50.6519 H       1  ZINC000509132103    0.1100
     40 H40        -3.3604    4.4980   52.6708 H       1  ZINC000509132103    0.1000
     41 H41        -1.9017    3.6174   53.1828 H       1  ZINC000509132103    0.0900
     42 H42        -1.5896    6.2779   52.2717 H       1  ZINC000509132103    0.1200
     43 H43        -0.3061    7.3747   50.4850 H       1  ZINC000509132103    0.1300
     44 H44         0.2112    6.1420   48.4129 H       1  ZINC000509132103    0.1200
     45 H45        -0.5685    3.8293   48.1373 H       1  ZINC000509132103    0.1200
     46 H46        -2.1591    0.9519   47.4878 H       1  ZINC000509132103    0.1200
     47 H47        -0.3749   -0.3069   46.3497 H       1  ZINC000509132103    0.1200
     48 H48         1.8829   -0.3997   47.3280 H       1  ZINC000509132103    0.1200
     49 H49         2.3567    0.7669   49.4440 H       1  ZINC000509132103    0.1200
     50 H50         0.5737    2.0295   50.5799 H       1  ZINC000509132103    0.1200
     51 H51        -1.4232    1.4089   51.6684 H       1  ZINC000509132103    0.0800
     52 H52        -2.8851    0.7140   50.9189 H       1  ZINC000509132103    0.1000
@<TRIPOS>BOND
     1     1     2    1
     2     1    31    1
     3     1    32    1
     4     1    33    1
     5     2     3    1
     6     3    30   ar
     7     3     4   ar
     8     4     5   ar
     9     4    34    1
    10     5     6   ar
    11     5    35    1
    12     6     7    1
    13     6    29   ar
    14     7     8    1
    15     7    36    1
    16     7    37    1
    17     8     9    1
    18     9    10    1
    19     9    38    1
    20     9    39    1
    21    10    11    2
    22    10    12   am
    23    12    28    1
    24    12    13    1
    25    13    14    1
    26    13    40    1
    27    13    41    1
    28    14    19   ar
    29    14    15   ar
    30    15    16   ar
    31    15    42    1
    32    16    17   ar
    33    16    43    1
    34    17    18   ar
    35    17    44    1
    36    18    19   ar
    37    18    45    1
    38    19    20    1
    39    20    21    1
    40    20    22    1
    41    20    28    1
    42    22    27   ar
    43    22    23   ar
    44    23    24   ar
    45    23    46    1
    46    24    25   ar
    47    24    47    1
    48    25    26   ar
    49    25    48    1
    50    26    27   ar
    51    26    49    1
    52    27    50    1
    53    28    51    1
    54    28    52    1
    55    29    30   ar
@<TRIPOS>SUBSTRUCTURE
     1 ZINC000509132103        1 TEMP              0 ****  ****    0 ROOT


##########                                Name:    ZINC000373715094
##########                DOCK_Rotatable_Bonds:                   6
##########                         Heavy_Atoms:                  27
##########                    Molecular_Weight:             362.431
##########                DOCK_Rotatable_Bonds:                   6
##########                       Formal_Charge:           0.0299999
##########                     HBond_Acceptors:                   6
##########                        HBond_Donors:                   2
##########                         Heavy_Atoms:                  27
##########                          Grid_Score:          -35.467361
##########                     Grid_vdw_energy:          -35.280895
##########                      Grid_es_energy:           -0.186465
##########           Internal_energy_repulsive:           10.799281

@<TRIPOS>MOLECULE
ZINC000373715094
 49 52 1 0 0
SMALL
USER_CHARGES


@<TRIPOS>ATOM
      1 C1        -14.4036   -1.9024   58.0254 C.3     1  ZINC000373715094    0.0900
      2 N2        -13.2674   -2.7116   57.5776 N.am    1  ZINC000373715094   -0.6100
      3 C3        -13.2838   -4.0519   57.4765 C.2     1  ZINC000373715094    0.5200
      4 O4        -14.2324   -4.7573   57.7476 O.2     1  ZINC000373715094   -0.5200
      5 C5        -11.9471   -4.5523   56.9751 C.3     1  ZINC000373715094   -0.1600
      6 C6        -11.2642   -3.2924   56.3944 C.3     1  ZINC000373715094   -0.1000
      7 H7        -10.1930   -3.3016   56.5957 H       1  ZINC000373715094    0.1100
      8 C8        -11.5354   -3.1648   54.8941 C.3     1  ZINC000373715094    0.1300
      9 N9        -10.9490   -1.9181   54.3962 N.am    1  ZINC000373715094   -0.7300
     10 C10       -10.7144   -1.7630   53.0780 C.2     1  ZINC000373715094    0.5200
     11 O11       -10.9901   -2.6551   52.3040 O.2     1  ZINC000373715094   -0.5200
     12 C12       -10.1095   -0.4812   52.5661 C.3     1  ZINC000373715094   -0.0600
     13 C13        -8.6583   -0.7098   52.2301 C.2     1  ZINC000373715094    0.1200
     14 N14        -8.1266   -1.8364   51.8503 N.2     1  ZINC000373715094   -0.2300
     15 N15        -6.7559   -1.6699   51.6272 N.pl3   1  ZINC000373715094   -0.5100
     16 C16        -6.4155   -0.3671   51.8824 C.ar    1  ZINC000373715094    0.1300
     17 C17        -5.2211    0.3464   51.8276 C.ar    1  ZINC000373715094   -0.1400
     18 C18        -5.2063    1.6737   52.1512 C.ar    1  ZINC000373715094   -0.0700
     19 C19        -6.3712    2.3252   52.5366 C.ar    1  ZINC000373715094   -0.1600
     20 C20        -7.5566    1.6514   52.5994 C.ar    1  ZINC000373715094   -0.0400
     21 C21        -7.5989    0.2933   52.2664 C.ar    1  ZINC000373715094   -0.1600
     22 C22       -11.9669   -2.1626   57.1758 C.3     1  ZINC000373715094    0.1800
     23 H23       -12.1020   -1.2897   56.5371 H       1  ZINC000373715094    0.1000
     24 C24       -11.1637   -1.7952   58.3969 C.ar    1  ZINC000373715094   -0.1000
     25 C25        -9.9979   -1.0648   58.2633 C.ar    1  ZINC000373715094   -0.1000
     26 C26        -9.2612   -0.7278   59.3834 C.ar    1  ZINC000373715094   -0.1200
     27 C27        -9.6906   -1.1211   60.6372 C.ar    1  ZINC000373715094   -0.1100
     28 C28       -10.8570   -1.8507   60.7709 C.ar    1  ZINC000373715094   -0.1200
     29 C29       -11.5960   -2.1840   59.6512 C.ar    1  ZINC000373715094   -0.1100
     30 H30       -15.0159   -1.6290   57.1661 H       1  ZINC000373715094    0.0600
     31 H31       -15.0036   -2.4773   58.7308 H       1  ZINC000373715094    0.0800
     32 H32       -14.0367   -0.9989   58.5123 H       1  ZINC000373715094    0.0700
     33 H33       -11.3595   -4.9600   57.7976 H       1  ZINC000373715094    0.1100
     34 H34       -12.0881   -5.3026   56.1972 H       1  ZINC000373715094    0.1100
     35 H35       -11.0891   -4.0106   54.3710 H       1  ZINC000373715094    0.0700
     36 H36       -12.6111   -3.1558   54.7189 H       1  ZINC000373715094    0.0800
     37 H37       -10.7297   -1.2041   55.0151 H       1  ZINC000373715094    0.4000
     38 H38       -10.6432   -0.1593   51.6718 H       1  ZINC000373715094    0.1200
     39 H39       -10.1879    0.2893   53.3330 H       1  ZINC000373715094    0.1200
     40 H40        -6.1442   -2.3651   51.3385 H       1  ZINC000373715094    0.4400
     41 H41        -4.3082   -0.1484   51.5302 H       1  ZINC000373715094    0.1300
     42 H42        -4.2775    2.2231   52.1072 H       1  ZINC000373715094    0.1300
     43 H43        -6.3385    3.3748   52.7892 H       1  ZINC000373715094    0.1300
     44 H44        -8.4579    2.1651   52.8999 H       1  ZINC000373715094    0.1300
     45 H45        -9.6623   -0.7576   57.2838 H       1  ZINC000373715094    0.1200
     46 H46        -8.3498   -0.1577   59.2789 H       1  ZINC000373715094    0.1200
     47 H47        -9.1146   -0.8584   61.5122 H       1  ZINC000373715094    0.1200
     48 H48       -11.1923   -2.1582   61.7503 H       1  ZINC000373715094    0.1300
     49 H49       -12.5072   -2.7541   59.7556 H       1  ZINC000373715094    0.1300
@<TRIPOS>BOND
     1     1     2    1
     2     1    30    1
     3     1    31    1
     4     1    32    1
     5     2    22    1
     6     2     3   am
     7     3     4    2
     8     3     5    1
     9     5     6    1
    10     5    33    1
    11     5    34    1
    12     6     7    1
    13     6     8    1
    14     6    22    1
    15     8     9    1
    16     8    35    1
    17     8    36    1
    18     9    10   am
    19     9    37    1
    20    10    11    2
    21    10    12    1
    22    12    13    1
    23    12    38    1
    24    12    39    1
    25    13    21    1
    26    13    14    2
    27    14    15    1
    28    15    16    1
    29    15    40    1
    30    16    21   ar
    31    16    17   ar
    32    17    18   ar
    33    17    41    1
    34    18    19   ar
    35    18    42    1
    36    19    20   ar
    37    19    43    1
    38    20    21   ar
    39    20    44    1
    40    22    23    1
    41    22    24    1
    42    24    29   ar
    43    24    25   ar
    44    25    26   ar
    45    25    45    1
    46    26    27   ar
    47    26    46    1
    48    27    28   ar
    49    27    47    1
    50    28    29   ar
    51    28    48    1
    52    29    49    1
@<TRIPOS>SUBSTRUCTURE
     1 ZINC000373715094        1 TEMP              0 ****  ****    0 ROOT


##########                                Name:    ZINC000912668252
##########                DOCK_Rotatable_Bonds:                  10
##########                         Heavy_Atoms:                  30
##########                    Molecular_Weight:             411.433
##########                DOCK_Rotatable_Bonds:                  10
##########                       Formal_Charge:           0.0199993
##########                     HBond_Acceptors:                   8
##########                        HBond_Donors:                   2
##########                         Heavy_Atoms:                  30
##########                          Grid_Score:          -35.401203
##########                     Grid_vdw_energy:          -33.779209
##########                      Grid_es_energy:           -1.621993
##########           Internal_energy_repulsive:           13.698998

@<TRIPOS>MOLECULE
ZINC000912668252
 52 54 1 0 0
SMALL
USER_CHARGES


@<TRIPOS>ATOM
      1 C1          0.2085    4.5658   44.8863 C.3     1  ZINC000912668252   -0.1700
      2 C2          1.5129    3.8411   45.2241 C.3     1  ZINC000912668252    0.1100
      3 N3          1.3200    3.0219   46.4233 N.am    1  ZINC000912668252   -0.6100
      4 C4          0.7360    1.6832   46.3097 C.3     1  ZINC000912668252    0.1000
      5 C5         -0.7375    1.7332   46.7189 C.3     1  ZINC000912668252   -0.1800
      6 C6          1.6798    3.4999   47.6310 C.2     1  ZINC000912668252    0.5600
      7 O7          2.1644    4.6107   47.7252 O.2     1  ZINC000912668252   -0.5300
      8 C8          1.4851    2.6732   48.8413 C.ar    1  ZINC000912668252   -0.1100
      9 C9          2.3239    1.5853   49.0886 C.ar    1  ZINC000912668252   -0.1100
     10 C10         2.1402    0.8154   50.2193 C.ar    1  ZINC000912668252   -0.1000
     11 C11         1.1273    1.1177   51.1098 C.ar    1  ZINC000912668252   -0.1200
     12 C12         0.2867    2.1989   50.8725 C.ar    1  ZINC000912668252    0.1400
     13 N13        -0.7373    2.5009   51.7776 N.am    1  ZINC000912668252   -0.6700
     14 C14        -2.0253    2.4244   51.3880 C.2     1  ZINC000912668252    0.5200
     15 O15        -2.2969    2.0938   50.2531 O.2     1  ZINC000912668252   -0.4900
     16 C16        -3.1278    2.7496   52.3625 C.3     1  ZINC000912668252    0.0500
     17 O17        -4.3871    2.2303   51.8596 O.3     1  ZINC000912668252   -0.3300
     18 C18        -5.4870    2.4657   52.6031 C.2     1  ZINC000912668252    0.5400
     19 O19        -5.5591    3.4731   53.2799 O.2     1  ZINC000912668252   -0.4800
     20 C20        -6.5982    1.5050   52.5955 C.2     1  ZINC000912668252    0.0400
     21 C21        -7.8260    1.7155   53.1402 C.2     1  ZINC000912668252   -0.0900
     22 C22        -8.6009    0.5517   52.9196 C.ar    1  ZINC000912668252   -0.1000
     23 C23        -9.9149    0.1945   53.2494 C.ar    1  ZINC000912668252   -0.0900
     24 C24       -10.3949   -1.0341   52.8923 C.ar    1  ZINC000912668252    0.0700
     25 F25       -11.6622   -1.3765   53.2114 F       1  ZINC000912668252   -0.1400
     26 C26        -9.5901   -1.9348   52.2028 C.ar    1  ZINC000912668252   -0.1100
     27 C27        -8.2955   -1.6055   51.8685 C.ar    1  ZINC000912668252   -0.1000
     28 C28        -7.7844   -0.3599   52.2216 C.ar    1  ZINC000912668252    0.1100
     29 N29        -6.5644    0.2454   52.0284 N.pl3   1  ZINC000912668252   -0.5600
     30 C30         0.4661    2.9813   49.7427 C.ar    1  ZINC000912668252   -0.0700
     31 H31         0.3521    5.1753   43.9940 H       1  ZINC000912668252    0.0700
     32 H32        -0.5773    3.8330   44.7032 H       1  ZINC000912668252    0.0600
     33 H33        -0.0785    5.2054   45.7209 H       1  ZINC000912668252    0.0600
     34 H34         1.7998    3.2014   44.3894 H       1  ZINC000912668252    0.0800
     35 H35         2.2988    4.5738   45.4072 H       1  ZINC000912668252    0.0900
     36 H36         0.8153    1.3384   45.2788 H       1  ZINC000912668252    0.0900
     37 H37         1.2718    0.9963   46.9649 H       1  ZINC000912668252    0.0800
     38 H38        -0.8142    1.6964   47.8056 H       1  ZINC000912668252    0.0600
     39 H39        -1.1847    2.6578   46.3541 H       1  ZINC000912668252    0.0700
     40 H40        -1.2632    0.8808   46.2885 H       1  ZINC000912668252    0.0700
     41 H41         3.1163    1.3458   48.3950 H       1  ZINC000912668252    0.1400
     42 H42         2.7900   -0.0261   50.4087 H       1  ZINC000912668252    0.1400
     43 H43         0.9882    0.5115   51.9927 H       1  ZINC000912668252    0.1300
     44 H44        -0.5200    2.7653   52.6852 H       1  ZINC000912668252    0.4200
     45 H45        -2.9061    2.2936   53.3274 H       1  ZINC000912668252    0.1100
     46 H46        -3.2016    3.8307   52.4800 H       1  ZINC000912668252    0.1100
     47 H47        -8.1515    2.6100   53.6502 H       1  ZINC000912668252    0.1700
     48 H48       -10.5464    0.8879   53.7847 H       1  ZINC000912668252    0.1400
     49 H49        -9.9841   -2.9018   51.9273 H       1  ZINC000912668252    0.1400
     50 H50        -7.6781   -2.3120   51.3336 H       1  ZINC000912668252    0.1400
     51 H51        -5.8048   -0.1479   51.5710 H       1  ZINC000912668252    0.4300
     52 H52        -0.1860    3.8219   49.5567 H       1  ZINC000912668252    0.1400
@<TRIPOS>BOND
     1     1     2    1
     2     1    31    1
     3     1    32    1
     4     1    33    1
     5     2     3    1
     6     2    34    1
     7     2    35    1
     8     3     4    1
     9     3     6   am
    10     4     5    1
    11     4    36    1
    12     4    37    1
    13     5    38    1
    14     5    39    1
    15     5    40    1
    16     6     7    2
    17     6     8    1
    18     8    30   ar
    19     8     9   ar
    20     9    10   ar
    21     9    41    1
    22    10    11   ar
    23    10    42    1
    24    11    12   ar
    25    11    43    1
    26    12    13    1
    27    12    30   ar
    28    13    14   am
    29    13    44    1
    30    14    15    2
    31    14    16    1
    32    16    17    1
    33    16    45    1
    34    16    46    1
    35    17    18    1
    36    18    19    2
    37    18    20    1
    38    20    29    1
    39    20    21    2
    40    21    22    1
    41    21    47    1
    42    22    28   ar
    43    22    23   ar
    44    23    24   ar
    45    23    48    1
    46    24    25    1
    47    24    26   ar
    48    26    27   ar
    49    26    49    1
    50    27    28   ar
    51    27    50    1
    52    28    29    1
    53    29    51    1
    54    30    52    1
@<TRIPOS>SUBSTRUCTURE
     1 ZINC000912668252        1 TEMP              0 ****  ****    0 ROOT


##########                                Name:    ZINC000013809319
##########                DOCK_Rotatable_Bonds:                  10
##########                         Heavy_Atoms:                  30
##########                    Molecular_Weight:             407.469
##########                DOCK_Rotatable_Bonds:                  10
##########                       Formal_Charge:         -0.00999978
##########                     HBond_Acceptors:                   7
##########                        HBond_Donors:                   1
##########                         Heavy_Atoms:                  30
##########                          Grid_Score:          -35.388813
##########                     Grid_vdw_energy:          -34.715168
##########                      Grid_es_energy:           -0.673646
##########           Internal_energy_repulsive:           17.941378

@<TRIPOS>MOLECULE
ZINC000013809319
 55 57 1 0 0
SMALL
USER_CHARGES


@<TRIPOS>ATOM
      1 C1         -2.5869    3.0912   52.0622 C.3     1  ZINC000013809319   -0.1500
      2 C2         -4.0152    2.6689   52.4126 C.3     1  ZINC000013809319    0.0500
      3 O3         -4.5105    1.7835   51.4063 O.3     1  ZINC000013809319   -0.3100
      4 C4         -5.7034    1.1814   51.6479 C.ar    1  ZINC000013809319    0.1500
      5 C5         -6.8239    1.9522   51.9313 C.ar    1  ZINC000013809319   -0.2200
      6 C6         -8.0360    1.3446   52.1765 C.ar    1  ZINC000013809319   -0.0300
      7 C7         -8.1374   -0.0470   52.1398 C.ar    1  ZINC000013809319   -0.1100
      8 C8         -9.4378   -0.7032   52.4021 C.2     1  ZINC000013809319    0.2300
      9 C9        -10.2139   -0.3086   53.4798 C.2     1  ZINC000013809319   -0.2900
     10 C10       -11.4423   -0.9582   53.6921 C.2     1  ZINC000013809319    0.5300
     11 O11       -12.1588   -0.6433   54.6283 O.2     1  ZINC000013809319   -0.5400
     12 N12       -11.8140   -1.9364   52.8400 N.am    1  ZINC000013809319   -0.5100
     13 C13       -13.0894   -2.6294   53.0377 C.3     1  ZINC000013809319    0.0700
     14 C14       -12.9182   -3.7107   54.0734 C.2     1  ZINC000013809319    0.5000
     15 O15       -11.8324   -4.2247   54.2398 O.2     1  ZINC000013809319   -0.5200
     16 N16       -13.9719   -4.1066   54.8147 N.am    1  ZINC000013809319   -0.7200
     17 C17       -13.8051   -5.1566   55.8228 C.3     1  ZINC000013809319    0.1300
     18 C18       -14.1139   -4.5866   57.2087 C.3     1  ZINC000013809319   -0.0800
     19 C19       -13.1608   -3.4593   57.5119 C.ar    1  ZINC000013809319   -0.1200
     20 C20       -11.8680   -3.7359   57.9119 C.ar    1  ZINC000013809319   -0.0800
     21 C21       -10.9932   -2.7019   58.1908 C.ar    1  ZINC000013809319   -0.1500
     22 C22       -11.4096   -1.3893   58.0697 C.ar    1  ZINC000013809319   -0.0800
     23 C23       -12.7017   -1.1073   57.6696 C.ar    1  ZINC000013809319   -0.2100
     24 C24       -13.5796   -2.1426   57.3841 C.ar    1  ZINC000013809319    0.1300
     25 O25       -14.8509   -1.8680   56.9904 O.3     1  ZINC000013809319   -0.3100
     26 C26       -15.2252   -0.4905   56.9208 C.3     1  ZINC000013809319    0.0300
     27 C27       -11.0175   -2.2787   51.8075 C.2     1  ZINC000013809319    0.3900
     28 N28        -9.8773   -1.6830   51.5931 N.2     1  ZINC000013809319   -0.5300
     29 C29        -7.0095   -0.8183   51.8547 C.ar    1  ZINC000013809319   -0.0500
     30 C30        -5.8017   -0.2038   51.6053 C.ar    1  ZINC000013809319   -0.1600
     31 H31        -1.9496    2.2084   52.0094 H       1  ZINC000013809319    0.0700
     32 H32        -2.5845    3.5993   51.0979 H       1  ZINC000013809319    0.0700
     33 H33        -2.2091    3.7667   52.8298 H       1  ZINC000013809319    0.0800
     34 H34        -4.0176    2.1609   53.3769 H       1  ZINC000013809319    0.0600
     35 H35        -4.6524    3.5517   52.4654 H       1  ZINC000013809319    0.0600
     36 H36        -6.7447    3.0290   51.9599 H       1  ZINC000013809319    0.1300
     37 H37        -8.9067    1.9444   52.3971 H       1  ZINC000013809319    0.1400
     38 H38        -9.8829    0.4787   54.1410 H       1  ZINC000013809319    0.1600
     39 H39       -13.8412   -1.9170   53.3772 H       1  ZINC000013809319    0.1300
     40 H40       -13.4103   -3.0756   52.0964 H       1  ZINC000013809319    0.1300
     41 H41       -14.8407   -3.6964   54.6809 H       1  ZINC000013809319    0.4000
     42 H42       -14.4879   -5.9785   55.6076 H       1  ZINC000013809319    0.0700
     43 H43       -12.7783   -5.5216   55.8007 H       1  ZINC000013809319    0.0700
     44 H44       -15.1374   -4.2121   57.2279 H       1  ZINC000013809319    0.0800
     45 H45       -13.9998   -5.3703   57.9576 H       1  ZINC000013809319    0.0800
     46 H46       -11.5403   -4.7605   58.0073 H       1  ZINC000013809319    0.1300
     47 H47        -9.9828   -2.9203   58.5041 H       1  ZINC000013809319    0.1300
     48 H48       -10.7246   -0.5835   58.2884 H       1  ZINC000013809319    0.1300
     49 H49       -13.0266   -0.0817   57.5754 H       1  ZINC000013809319    0.1300
     50 H50       -14.5804    0.0258   56.2098 H       1  ZINC000013809319    0.0600
     51 H51       -16.2622   -0.4120   56.5945 H       1  ZINC000013809319    0.1000
     52 H52       -15.1187   -0.0350   57.9053 H       1  ZINC000013809319    0.0600
     53 H53       -11.3340   -3.0646   51.1377 H       1  ZINC000013809319    0.2000
     54 H54        -7.0844   -1.8953   51.8255 H       1  ZINC000013809319    0.1400
     55 H55        -4.9287   -0.7999   51.3844 H       1  ZINC000013809319    0.1400
@<TRIPOS>BOND
     1     1     2    1
     2     1    31    1
     3     1    32    1
     4     1    33    1
     5     2     3    1
     6     2    34    1
     7     2    35    1
     8     3     4    1
     9     4    30   ar
    10     4     5   ar
    11     5     6   ar
    12     5    36    1
    13     6     7   ar
    14     6    37    1
    15     7     8    1
    16     7    29   ar
    17     8    28    1
    18     8     9    2
    19     9    10    1
    20     9    38    1
    21    10    11    2
    22    10    12   am
    23    12    13    1
    24    12    27    1
    25    13    14    1
    26    13    39    1
    27    13    40    1
    28    14    15    2
    29    14    16   am
    30    16    17    1
    31    16    41    1
    32    17    18    1
    33    17    42    1
    34    17    43    1
    35    18    19    1
    36    18    44    1
    37    18    45    1
    38    19    24   ar
    39    19    20   ar
    40    20    21   ar
    41    20    46    1
    42    21    22   ar
    43    21    47    1
    44    22    23   ar
    45    22    48    1
    46    23    24   ar
    47    23    49    1
    48    24    25    1
    49    25    26    1
    50    26    50    1
    51    26    51    1
    52    26    52    1
    53    27    28    2
    54    27    53    1
    55    29    30   ar
    56    29    54    1
    57    30    55    1
@<TRIPOS>SUBSTRUCTURE
     1 ZINC000013809319        1 TEMP              0 ****  ****    0 ROOT


##########                                Name:    ZINC000046390957
##########                DOCK_Rotatable_Bonds:                   9
##########                         Heavy_Atoms:                  29
##########                    Molecular_Weight:             408.521
##########                DOCK_Rotatable_Bonds:                   9
##########                       Formal_Charge:           0.0100005
##########                     HBond_Acceptors:                   6
##########                        HBond_Donors:                   1
##########                         Heavy_Atoms:                  29
##########                          Grid_Score:          -35.384312
##########                     Grid_vdw_energy:          -34.852215
##########                      Grid_es_energy:           -0.532098
##########           Internal_energy_repulsive:           10.566507

@<TRIPOS>MOLECULE
ZINC000046390957
 53 55 1 0 0
SMALL
USER_CHARGES


@<TRIPOS>ATOM
      1 C1         -6.5035   -0.6115   51.5531 C.3     1  ZINC000046390957   -0.1100
      2 C2         -6.1030    0.7003   52.1773 C.ar    1  ZINC000046390957   -0.0600
      3 C3         -4.9693    1.3567   51.7393 C.ar    1  ZINC000046390957   -0.1200
      4 C4         -4.6008    2.5602   52.3118 C.ar    1  ZINC000046390957   -0.1100
      5 C5         -5.3656    3.1108   53.3238 C.ar    1  ZINC000046390957   -0.1200
      6 C6         -6.5006    2.4597   53.7659 C.ar    1  ZINC000046390957   -0.0800
      7 C7         -7.3338    3.0608   54.8685 C.3     1  ZINC000046390957   -0.1100
      8 C8         -6.8763    1.2535   53.1894 C.ar    1  ZINC000046390957    0.1300
      9 N9         -8.0259    0.5916   53.6347 N.am    1  ZINC000046390957   -0.6800
     10 C10        -9.2141    0.8353   53.0472 C.2     1  ZINC000046390957    0.5200
     11 O11        -9.2870    1.6286   52.1325 O.2     1  ZINC000046390957   -0.4900
     12 C12       -10.4522    0.1225   53.5267 C.3     1  ZINC000046390957    0.0700
     13 H13       -10.1887   -0.5593   54.3353 H       1  ZINC000046390957    0.1100
     14 C14       -11.4668    1.1486   54.0351 C.3     1  ZINC000046390957   -0.1700
     15 O15       -11.0332   -0.6300   52.4292 O.3     1  ZINC000046390957   -0.3300
     16 C16       -10.7501   -1.9407   52.3718 C.2     1  ZINC000046390957    0.4700
     17 O17        -9.6793   -2.3450   52.7590 O.2     1  ZINC000046390957   -0.4800
     18 C18       -11.7677   -2.9082   51.8243 C.3     1  ZINC000046390957   -0.0300
     19 C19       -12.9835   -2.9157   52.7148 C.2     1  ZINC000046390957    0.0800
     20 C20       -14.1256   -2.3058   52.3838 C.2     1  ZINC000046390957   -0.2500
     21 S21       -15.2757   -2.5603   53.6942 S.3     1  ZINC000046390957    0.1300
     22 C22       -14.1064   -3.4616   54.5567 C.2     1  ZINC000046390957    0.0600
     23 C23       -14.3273   -4.0917   55.9077 C.3     1  ZINC000046390957    0.0000
     24 C24       -13.0843   -3.9333   56.7451 C.ar    1  ZINC000046390957   -0.0900
     25 C25       -12.3516   -5.0466   57.1120 C.ar    1  ZINC000046390957   -0.0900
     26 C26       -11.2115   -4.9012   57.8802 C.ar    1  ZINC000046390957   -0.1200
     27 C27       -10.8039   -3.6426   58.2809 C.ar    1  ZINC000046390957   -0.1200
     28 C28       -11.5361   -2.5292   57.9132 C.ar    1  ZINC000046390957   -0.1200
     29 C29       -12.6738   -2.6742   57.1415 C.ar    1  ZINC000046390957   -0.1100
     30 N30       -13.0093   -3.5290   53.8808 N.2     1  ZINC000046390957   -0.4500
     31 H31        -7.0642   -0.4222   50.6378 H       1  ZINC000046390957    0.0800
     32 H32        -5.6100   -1.1903   51.3188 H       1  ZINC000046390957    0.0700
     33 H33        -7.1260   -1.1711   52.2514 H       1  ZINC000046390957    0.0600
     34 H34        -4.3699    0.9292   50.9491 H       1  ZINC000046390957    0.1300
     35 H35        -3.7135    3.0711   51.9682 H       1  ZINC000046390957    0.1300
     36 H36        -5.0749    4.0508   53.7692 H       1  ZINC000046390957    0.1300
     37 H37        -8.0956    3.7092   54.4359 H       1  ZINC000046390957    0.0700
     38 H38        -7.8145    2.2640   55.4361 H       1  ZINC000046390957    0.0600
     39 H39        -6.6939    3.6436   55.5309 H       1  ZINC000046390957    0.0700
     40 H40        -7.9677   -0.0428   54.3662 H       1  ZINC000046390957    0.4100
     41 H41       -11.0306    1.7135   54.8590 H       1  ZINC000046390957    0.0800
     42 H42       -11.7304    1.8304   53.2265 H       1  ZINC000046390957    0.0800
     43 H43       -12.3624    0.6331   54.3820 H       1  ZINC000046390957    0.0800
     44 H44       -12.0556   -2.6022   50.8186 H       1  ZINC000046390957    0.1200
     45 H45       -11.3361   -3.9085   51.7902 H       1  ZINC000046390957    0.1300
     46 H46       -14.3109   -1.7542   51.4740 H       1  ZINC000046390957    0.1800
     47 H47       -15.1649   -3.6020   56.4045 H       1  ZINC000046390957    0.1000
     48 H48       -14.5484   -5.1516   55.7826 H       1  ZINC000046390957    0.1000
     49 H49       -12.6701   -6.0299   56.7989 H       1  ZINC000046390957    0.1200
     50 H50       -10.6395   -5.7710   58.1674 H       1  ZINC000046390957    0.1200
     51 H51        -9.9135   -3.5292   58.8816 H       1  ZINC000046390957    0.1200
     52 H52       -11.2178   -1.5459   58.2265 H       1  ZINC000046390957    0.1200
     53 H53       -13.2458   -1.8043   56.8542 H       1  ZINC000046390957    0.1200
@<TRIPOS>BOND
     1     1     2    1
     2     1    31    1
     3     1    32    1
     4     1    33    1
     5     2     8   ar
     6     2     3   ar
     7     3     4   ar
     8     3    34    1
     9     4     5   ar
    10     4    35    1
    11     5     6   ar
    12     5    36    1
    13     6     7    1
    14     6     8   ar
    15     7    37    1
    16     7    38    1
    17     7    39    1
    18     8     9    1
    19     9    10   am
    20     9    40    1
    21    10    11    2
    22    10    12    1
    23    12    13    1
    24    12    14    1
    25    12    15    1
    26    14    41    1
    27    14    42    1
    28    14    43    1
    29    15    16    1
    30    16    17    2
    31    16    18    1
    32    18    19    1
    33    18    44    1
    34    18    45    1
    35    19    30    1
    36    19    20    2
    37    20    21    1
    38    20    46    1
    39    21    22    1
    40    22    23    1
    41    22    30    2
    42    23    24    1
    43    23    47    1
    44    23    48    1
    45    24    29   ar
    46    24    25   ar
    47    25    26   ar
    48    25    49    1
    49    26    27   ar
    50    26    50    1
    51    27    28   ar
    52    27    51    1
    53    28    29   ar
    54    28    52    1
    55    29    53    1
@<TRIPOS>SUBSTRUCTURE
     1 ZINC000046390957        1 TEMP              0 ****  ****    0 ROOT


##########                                Name:    ZINC000482846390
##########                DOCK_Rotatable_Bonds:                   9
##########                         Heavy_Atoms:                  30
##########                    Molecular_Weight:             420.469
##########                DOCK_Rotatable_Bonds:                   9
##########                       Formal_Charge:          -0.0100011
##########                     HBond_Acceptors:                  11
##########                        HBond_Donors:                   2
##########                         Heavy_Atoms:                  30
##########                          Grid_Score:          -35.310455
##########                     Grid_vdw_energy:          -35.283760
##########                      Grid_es_energy:           -0.026695
##########           Internal_energy_repulsive:           23.254543

@<TRIPOS>MOLECULE
ZINC000482846390
 58 60 1 0 0
SMALL
USER_CHARGES


@<TRIPOS>ATOM
      1 C1         -5.7948    0.6839   52.0060 C.3     1  ZINC000482846390   -0.1000
      2 C2         -7.0747   -0.1107   52.0461 C.2     1  ZINC000482846390    0.0900
      3 C3         -8.2607    0.3115   52.5422 C.2     1  ZINC000482846390   -0.2700
      4 C4         -9.1859   -0.7259   52.3873 C.2     1  ZINC000482846390    0.0700
      5 C5        -10.6340   -0.6879   52.8027 C.3     1  ZINC000482846390   -0.0500
      6 C6        -11.1415   -2.1155   53.0148 C.3     1  ZINC000482846390    0.1500
      7 H7        -10.3237   -2.7429   53.3695 H       1  ZINC000482846390    0.1000
      8 C8        -11.6724   -2.6699   51.6913 C.3     1  ZINC000482846390   -0.1700
      9 N9        -12.2180   -2.1086   54.0084 N.am    1  ZINC000482846390   -0.6800
     10 C10       -12.6263   -3.2649   54.5676 C.2     1  ZINC000482846390    0.5100
     11 O11       -12.1011   -4.3115   54.2493 O.2     1  ZINC000482846390   -0.5200
     12 C12       -13.7257   -3.2581   55.5799 C.2     1  ZINC000482846390    0.5100
     13 O13       -14.8837   -3.2913   55.2183 O.2     1  ZINC000482846390   -0.5100
     14 N14       -13.4312   -3.2151   56.8944 N.am    1  ZINC000482846390   -0.5900
     15 C15       -12.0337   -3.1684   57.3466 C.3     1  ZINC000482846390    0.0500
     16 C16       -11.8524   -1.9444   58.2528 C.3     1  ZINC000482846390    0.1000
     17 N17       -12.9229   -1.9428   59.2596 N.am    1  ZINC000482846390   -0.6000
     18 C18       -12.6284   -1.8988   60.5740 C.2     1  ZINC000482846390    0.5200
     19 O19       -11.4707   -1.8602   60.9354 O.2     1  ZINC000482846390   -0.5000
     20 C20       -13.7277   -1.8977   61.5866 C.2     1  ZINC000482846390    0.5200
     21 O21       -14.2524   -2.9420   61.9135 O.2     1  ZINC000482846390   -0.5000
     22 N22       -14.1363   -0.7371   62.1364 N.am    1  ZINC000482846390   -0.6000
     23 C23       -15.2125   -0.7117   63.1397 C.3     1  ZINC000482846390    0.0700
     24 C24       -14.7270    0.0953   64.3491 C.3     1  ZINC000482846390    0.0500
     25 O25       -14.2435    1.3651   63.9044 O.3     1  ZINC000482846390   -0.3700
     26 C26       -13.1162    1.2881   63.0286 C.3     1  ZINC000482846390    0.0500
     27 C27       -13.5153    0.5415   61.7557 C.3     1  ZINC000482846390    0.0700
     28 C28       -14.3206   -1.9894   58.8074 C.3     1  ZINC000482846390    0.0900
     29 C29       -14.5019   -3.2078   57.9011 C.3     1  ZINC000482846390    0.0900
     30 N30        -8.5773   -1.7348   51.8185 N.2     1  ZINC000482846390   -0.2800
     31 N31        -7.2448   -1.3688   51.5884 N.pl3   1  ZINC000482846390   -0.4700
     32 H32        -5.7452    1.2459   51.0734 H       1  ZINC000482846390    0.0800
     33 H33        -5.7697    1.3751   52.8486 H       1  ZINC000482846390    0.0900
     34 H34        -4.9439    0.0055   52.0672 H       1  ZINC000482846390    0.0700
     35 H35        -8.4579    1.2786   52.9807 H       1  ZINC000482846390    0.1500
     36 H36       -10.7308   -0.1261   53.7318 H       1  ZINC000482846390    0.0900
     37 H37       -11.2230   -0.2048   52.0231 H       1  ZINC000482846390    0.1100
     38 H38       -10.8715   -2.6752   50.9521 H       1  ZINC000482846390    0.0700
     39 H39       -12.0340   -3.6871   51.8424 H       1  ZINC000482846390    0.0700
     40 H40       -12.4902   -2.0427   51.3366 H       1  ZINC000482846390    0.0600
     41 H41       -12.6370   -1.2719   54.2637 H       1  ZINC000482846390    0.4200
     42 H42       -11.7994   -4.0748   57.9049 H       1  ZINC000482846390    0.0800
     43 H43       -11.3725   -3.0860   56.4839 H       1  ZINC000482846390    0.1600
     44 H44       -10.8834   -1.9971   58.7493 H       1  ZINC000482846390    0.1100
     45 H45       -11.9109   -1.0348   57.6550 H       1  ZINC000482846390    0.0800
     46 H46       -16.0988   -0.2399   62.7154 H       1  ZINC000482846390    0.0900
     47 H47       -15.4502   -1.7295   63.4489 H       1  ZINC000482846390    0.0900
     48 H48       -15.5539    0.2435   65.0436 H       1  ZINC000482846390    0.1100
     49 H49       -13.9233   -0.4455   64.8489 H       1  ZINC000482846390    0.0600
     50 H50       -12.7842    2.2943   62.7732 H       1  ZINC000482846390    0.1100
     51 H51       -12.3067    0.7516   63.5236 H       1  ZINC000482846390    0.0600
     52 H52       -12.6307    0.3548   61.1468 H       1  ZINC000482846390    0.1100
     53 H53       -14.2318    1.1372   61.1901 H       1  ZINC000482846390    0.0800
     54 H54       -14.9816   -2.0718   59.6701 H       1  ZINC000482846390    0.0900
     55 H55       -14.5548   -1.0830   58.2492 H       1  ZINC000482846390    0.0900
     56 H56       -15.4712   -3.1538   57.4052 H       1  ZINC000482846390    0.1100
     57 H57       -14.4431   -4.1188   58.4966 H       1  ZINC000482846390    0.0800
     58 H58        -6.5632   -1.9238   51.1781 H       1  ZINC000482846390    0.4400
@<TRIPOS>BOND
     1     1     2    1
     2     1    32    1
     3     1    33    1
     4     1    34    1
     5     2    31    1
     6     2     3    2
     7     3     4    1
     8     3    35    1
     9     4     5    1
    10     4    30    2
    11     5     6    1
    12     5    36    1
    13     5    37    1
    14     6     7    1
    15     6     8    1
    16     6     9    1
    17     8    38    1
    18     8    39    1
    19     8    40    1
    20     9    10   am
    21     9    41    1
    22    10    11    2
    23    10    12    1
    24    12    13    2
    25    12    14   am
    26    14    29    1
    27    14    15    1
    28    15    16    1
    29    15    42    1
    30    15    43    1
    31    16    17    1
    32    16    44    1
    33    16    45    1
    34    17    18   am
    35    17    28    1
    36    18    19    2
    37    18    20    1
    38    20    21    2
    39    20    22   am
    40    22    27    1
    41    22    23    1
    42    23    24    1
    43    23    46    1
    44    23    47    1
    45    24    25    1
    46    24    48    1
    47    24    49    1
    48    25    26    1
    49    26    27    1
    50    26    50    1
    51    26    51    1
    52    27    52    1
    53    27    53    1
    54    28    29    1
    55    28    54    1
    56    28    55    1
    57    29    56    1
    58    29    57    1
    59    30    31    1
    60    31    58    1
@<TRIPOS>SUBSTRUCTURE
     1 ZINC000482846390        1 TEMP              0 ****  ****    0 ROOT


##########                                Name:    ZINC000471198073
##########                DOCK_Rotatable_Bonds:                  12
##########                         Heavy_Atoms:                  30
##########                    Molecular_Weight:             409.528
##########                DOCK_Rotatable_Bonds:                  12
##########                       Formal_Charge:          -0.0399998
##########                     HBond_Acceptors:                   6
##########                        HBond_Donors:                   3
##########                         Heavy_Atoms:                  30
##########                          Grid_Score:          -35.286354
##########                     Grid_vdw_energy:          -32.157425
##########                      Grid_es_energy:           -3.128931
##########           Internal_energy_repulsive:           20.160112

@<TRIPOS>MOLECULE
ZINC000471198073
 61 62 1 0 0
SMALL
USER_CHARGES


@<TRIPOS>ATOM
      1 C1          0.1425    2.2946   46.1635 C.3     1  ZINC000471198073   -0.1400
      2 C2         -0.9588    1.5850   46.9538 C.3     1  ZINC000471198073   -0.1100
      3 C3         -0.5909    0.1103   47.1295 C.3     1  ZINC000471198073   -0.1500
      4 C4         -1.1022    2.2317   48.3073 C.2     1  ZINC000471198073    0.5200
      5 O5         -1.2336    3.4343   48.3940 O.2     1  ZINC000471198073   -0.5200
      6 N6         -1.0844    1.4737   49.4216 N.am    1  ZINC000471198073   -0.6700
      7 C7         -1.2175    2.0742   50.6785 C.ar    1  ZINC000471198073    0.1600
      8 C8         -0.0922    2.5266   51.3555 C.ar    1  ZINC000471198073   -0.1500
      9 C9         -0.2225    3.1202   52.5967 C.ar    1  ZINC000471198073   -0.0800
     10 C10        -1.4714    3.2657   53.1682 C.ar    1  ZINC000471198073   -0.1300
     11 C11        -2.6016    2.8147   52.4963 C.ar    1  ZINC000471198073    0.1500
     12 N12        -3.8648    2.9617   53.0751 N.am    1  ZINC000471198073   -0.6400
     13 C13        -4.3504    4.1931   53.3291 C.2     1  ZINC000471198073    0.5100
     14 O14        -3.6906    5.1742   53.0551 O.2     1  ZINC000471198073   -0.5000
     15 C15        -5.7007    4.3502   53.9479 C.2     1  ZINC000471198073    0.5100
     16 O16        -6.3571    5.3468   53.7270 O.2     1  ZINC000471198073   -0.5100
     17 N17        -6.1901    3.3853   54.7515 N.am    1  ZINC000471198073   -0.7000
     18 C18        -7.5138    3.5401   55.3598 C.3     1  ZINC000471198073    0.1200
     19 C19        -8.5434    2.7512   54.5485 C.3     1  ZINC000471198073   -0.0900
     20 H20        -8.3391    2.8737   53.4848 H       1  ZINC000471198073    0.0800
     21 C21        -8.4560    1.2688   54.9172 C.3     1  ZINC000471198073   -0.0800
     22 C22        -8.2263    0.4538   53.6706 C.ar    1  ZINC000471198073   -0.0800
     23 C23        -9.1824   -0.4522   53.2512 C.ar    1  ZINC000471198073   -0.1200
     24 C24        -8.9717   -1.1998   52.1077 C.ar    1  ZINC000471198073   -0.1200
     25 C25        -7.8049   -1.0411   51.3834 C.ar    1  ZINC000471198073   -0.1200
     26 C26        -6.8492   -0.1345   51.8024 C.ar    1  ZINC000471198073   -0.1200
     27 C27        -7.0619    0.6162   52.9434 C.ar    1  ZINC000471198073   -0.1200
     28 C28        -9.9473    3.2726   54.8614 C.3     1  ZINC000471198073   -0.1000
     29 C29       -10.0636    3.5563   56.3604 C.3     1  ZINC000471198073   -0.1600
     30 C30       -10.1990    4.5621   54.0773 C.3     1  ZINC000471198073   -0.1700
     31 C31        -2.4743    2.2234   51.2472 C.ar    1  ZINC000471198073   -0.1400
     32 H32         0.2461    1.8269   45.1845 H       1  ZINC000471198073    0.0700
     33 H33        -0.1197    3.3453   46.0382 H       1  ZINC000471198073    0.0600
     34 H34         1.0854    2.2175   46.7048 H       1  ZINC000471198073    0.0600
     35 H35        -1.9017    1.6622   46.4125 H       1  ZINC000471198073    0.1000
     36 H36         0.3521    0.0331   47.6708 H       1  ZINC000471198073    0.0600
     37 H37        -1.3754   -0.3953   47.6925 H       1  ZINC000471198073    0.0600
     38 H38        -0.4872   -0.3575   46.1504 H       1  ZINC000471198073    0.0700
     39 H39        -0.9792    0.5120   49.3523 H       1  ZINC000471198073    0.4100
     40 H40         0.8859    2.4141   50.9116 H       1  ZINC000471198073    0.1300
     41 H41         0.6541    3.4708   53.1210 H       1  ZINC000471198073    0.1300
     42 H42        -1.5700    3.7300   54.1384 H       1  ZINC000471198073    0.1400
     43 H43        -4.3922    2.1776   53.2942 H       1  ZINC000471198073    0.4200
     44 H44        -5.6659    2.5882   54.9271 H       1  ZINC000471198073    0.4200
     45 H45        -7.4902    3.1627   56.3821 H       1  ZINC000471198073    0.0700
     46 H46        -7.7887    4.5948   55.3682 H       1  ZINC000471198073    0.0800
     47 H47        -7.6284    1.1149   55.6097 H       1  ZINC000471198073    0.0800
     48 H48        -9.3875    0.9563   55.3892 H       1  ZINC000471198073    0.0800
     49 H49       -10.0939   -0.5762   53.8171 H       1  ZINC000471198073    0.1200
     50 H50        -9.7183   -1.9082   51.7805 H       1  ZINC000471198073    0.1200
     51 H51        -7.6399   -1.6257   50.4905 H       1  ZINC000471198073    0.1200
     52 H52        -5.9376   -0.0107   51.2367 H       1  ZINC000471198073    0.1200
     53 H53        -6.3152    1.3246   53.2708 H       1  ZINC000471198073    0.1200
     54 H54       -10.6854    2.5233   54.5751 H       1  ZINC000471198073    0.0800
     55 H55        -9.3948    4.3742   56.6284 H       1  ZINC000471198073    0.0600
     56 H56       -11.0904    3.8334   56.5991 H       1  ZINC000471198073    0.0600
     57 H57        -9.7885    2.6633   56.9216 H       1  ZINC000471198073    0.0600
     58 H58        -9.9922    4.3912   53.0209 H       1  ZINC000471198073    0.0600
     59 H59       -11.2390    4.8646   54.1997 H       1  ZINC000471198073    0.0600
     60 H60        -9.5451    5.3491   54.4529 H       1  ZINC000471198073    0.0700
     61 H61        -3.3508    1.8720   50.7229 H       1  ZINC000471198073    0.1400
@<TRIPOS>BOND
     1     1     2    1
     2     1    32    1
     3     1    33    1
     4     1    34    1
     5     2     3    1
     6     2     4    1
     7     2    35    1
     8     3    36    1
     9     3    37    1
    10     3    38    1
    11     4     5    2
    12     4     6   am
    13     6     7    1
    14     6    39    1
    15     7    31   ar
    16     7     8   ar
    17     8     9   ar
    18     8    40    1
    19     9    10   ar
    20     9    41    1
    21    10    11   ar
    22    10    42    1
    23    11    12    1
    24    11    31   ar
    25    12    13   am
    26    12    43    1
    27    13    14    2
    28    13    15    1
    29    15    16    2
    30    15    17   am
    31    17    18    1
    32    17    44    1
    33    18    19    1
    34    18    45    1
    35    18    46    1
    36    19    20    1
    37    19    21    1
    38    19    28    1
    39    21    22    1
    40    21    47    1
    41    21    48    1
    42    22    27   ar
    43    22    23   ar
    44    23    24   ar
    45    23    49    1
    46    24    25   ar
    47    24    50    1
    48    25    26   ar
    49    25    51    1
    50    26    27   ar
    51    26    52    1
    52    27    53    1
    53    28    29    1
    54    28    30    1
    55    28    54    1
    56    29    55    1
    57    29    56    1
    58    29    57    1
    59    30    58    1
    60    30    59    1
    61    30    60    1
    62    31    61    1
@<TRIPOS>SUBSTRUCTURE
     1 ZINC000471198073        1 TEMP              0 ****  ****    0 ROOT


##########                                Name:    ZINC000457806032
##########                DOCK_Rotatable_Bonds:                   8
##########                         Heavy_Atoms:                  24
##########                    Molecular_Weight:             387.911
##########                DOCK_Rotatable_Bonds:                   8
##########                       Formal_Charge:        -1.49012e-07
##########                     HBond_Acceptors:                   9
##########                        HBond_Donors:                   2
##########                         Heavy_Atoms:                  24
##########                          Grid_Score:          -35.227718
##########                     Grid_vdw_energy:          -35.819611
##########                      Grid_es_energy:            0.591893
##########           Internal_energy_repulsive:            8.973050

@<TRIPOS>MOLECULE
ZINC000457806032
 42 43 1 0 0
SMALL
USER_CHARGES


@<TRIPOS>ATOM
      1 C1          2.0443    0.0550   47.5813 C.3     1  ZINC000457806032    0.0800
      2 N2          1.0660    0.8375   46.8218 N.am    1  ZINC000457806032   -1.0100
      3 C3          1.5204    1.8739   45.8915 C.3     1  ZINC000457806032    0.0900
      4 S4         -0.5534    0.5503   47.0147 S.o2    1  ZINC000457806032    2.7900
      5 O5         -1.2304    1.5554   46.2724 O.2     1  ZINC000457806032   -0.9700
      6 O6         -0.7436   -0.8404   46.7931 O.2     1  ZINC000457806032   -0.9700
      7 N7         -0.9133    0.8234   48.6079 N.am    1  ZINC000457806032   -1.1300
      8 C8         -0.6797    2.1450   49.1955 C.3     1  ZINC000457806032    0.1100
      9 C9         -0.6201    2.0222   50.7193 C.3     1  ZINC000457806032    0.1100
     10 N10        -1.9768    1.8682   51.2503 N.am    1  ZINC000457806032   -0.7300
     11 C11        -2.5784    2.9016   51.8721 C.2     1  ZINC000457806032    0.5800
     12 O12        -1.9956    3.9625   51.9912 O.2     1  ZINC000457806032   -0.5300
     13 C13        -3.9413    2.7461   52.4073 C.2     1  ZINC000457806032   -0.1500
     14 C14        -4.5216    3.6586   53.2358 C.2     1  ZINC000457806032   -0.2200
     15 S15        -6.0977    3.1635   53.6612 S.3     1  ZINC000457806032    0.2400
     16 C16        -5.9597    1.7000   52.6992 C.2     1  ZINC000457806032   -0.1700
     17 C17        -7.0156    0.6741   52.5582 C.ar    1  ZINC000457806032   -0.0100
     18 C18        -8.2983    0.9171   53.0510 C.ar    1  ZINC000457806032   -0.0900
     19 C19        -9.2793   -0.0435   52.9167 C.ar    1  ZINC000457806032   -0.1000
     20 C20        -8.9928   -1.2471   52.2948 C.ar    1  ZINC000457806032   -0.0300
     21 Cl21      -10.2322   -2.4514   52.1300 Cl      1  ZINC000457806032   -0.0600
     22 C22        -7.7220   -1.4936   51.8036 C.ar    1  ZINC000457806032   -0.1000
     23 C23        -6.7346   -0.5382   51.9270 C.ar    1  ZINC000457806032   -0.1000
     24 C24        -4.7561    1.6535   52.1062 C.2     1  ZINC000457806032   -0.0700
     25 H25         2.2541    0.5549   48.5270 H       1  ZINC000457806032    0.0600
     26 H26         1.6415   -0.9387   47.7773 H       1  ZINC000457806032    0.0800
     27 H27         2.9653   -0.0334   47.0050 H       1  ZINC000457806032    0.0800
     28 H28         1.6660    1.4370   44.9036 H       1  ZINC000457806032    0.0600
     29 H29         0.7711    2.6634   45.8329 H       1  ZINC000457806032    0.0700
     30 H30         2.4623    2.2927   46.2459 H       1  ZINC000457806032    0.0700
     31 H31        -1.2788    0.1085   49.1520 H       1  ZINC000457806032    0.4200
     32 H32         0.2646    2.5451   48.8260 H       1  ZINC000457806032    0.0700
     33 H33        -1.4924    2.8156   48.9164 H       1  ZINC000457806032    0.0900
     34 H34        -0.0228    1.1518   50.9907 H       1  ZINC000457806032    0.0800
     35 H35        -0.1654    2.9198   51.1386 H       1  ZINC000457806032    0.0800
     36 H36        -2.4421    1.0225   51.1543 H       1  ZINC000457806032    0.4000
     37 H37        -4.0497    4.5686   53.5759 H       1  ZINC000457806032    0.1700
     38 H38        -8.5227    1.8552   53.5368 H       1  ZINC000457806032    0.1400
     39 H39       -10.2724    0.1434   53.2976 H       1  ZINC000457806032    0.1400
     40 H40        -7.5044   -2.4342   51.3195 H       1  ZINC000457806032    0.1400
     41 H41        -5.7437   -0.7314   51.5431 H       1  ZINC000457806032    0.1300
     42 H42        -4.4448    0.8434   51.4635 H       1  ZINC000457806032    0.1600
@<TRIPOS>BOND
     1     1     2    1
     2     1    25    1
     3     1    26    1
     4     1    27    1
     5     2     3    1
     6     2     4   am
     7     3    28    1
     8     3    29    1
     9     3    30    1
    10     4     5    2
    11     4     6    2
    12     4     7   am
    13     7     8    1
    14     7    31    1
    15     8     9    1
    16     8    32    1
    17     8    33    1
    18     9    10    1
    19     9    34    1
    20     9    35    1
    21    10    11   am
    22    10    36    1
    23    11    12    2
    24    11    13    1
    25    13    24    1
    26    13    14    2
    27    14    15    1
    28    14    37    1
    29    15    16    1
    30    16    17    1
    31    16    24    2
    32    17    23   ar
    33    17    18   ar
    34    18    19   ar
    35    18    38    1
    36    19    20   ar
    37    19    39    1
    38    20    21    1
    39    20    22   ar
    40    22    23   ar
    41    22    40    1
    42    23    41    1
    43    24    42    1
@<TRIPOS>SUBSTRUCTURE
     1 ZINC000457806032        1 TEMP              0 ****  ****    0 ROOT


##########                                Name:    ZINC001083519372
##########                DOCK_Rotatable_Bonds:                   7
##########                         Heavy_Atoms:                  27
##########                    Molecular_Weight:             370.411
##########                DOCK_Rotatable_Bonds:                   7
##########                       Formal_Charge:           0.0399996
##########                     HBond_Acceptors:                   9
##########                        HBond_Donors:                   2
##########                         Heavy_Atoms:                  27
##########                          Grid_Score:          -35.216202
##########                     Grid_vdw_energy:          -32.773434
##########                      Grid_es_energy:           -2.442768
##########           Internal_energy_repulsive:            9.420950

@<TRIPOS>MOLECULE
ZINC001083519372
 49 52 1 0 0
SMALL
USER_CHARGES


@<TRIPOS>ATOM
      1 C1        -13.1640   -0.1622   51.1714 C.3     1  ZINC001083519372   -0.1500
      2 C2        -13.4494   -0.8171   52.5243 C.3     1  ZINC001083519372   -0.0100
      3 C3        -14.9247   -1.2163   52.5965 C.3     1  ZINC001083519372   -0.1500
      4 C4        -12.5888   -2.0444   52.6798 C.2     1  ZINC001083519372   -0.0100
      5 C5        -11.3505   -2.0902   53.1983 C.2     1  ZINC001083519372   -0.0100
      6 C6        -10.5661   -0.9193   53.7322 C.3     1  ZINC001083519372    0.1300
      7 N7         -9.7287   -0.3619   52.6616 N.3     1  ZINC001083519372   -0.5000
      8 C8         -8.7535    0.6181   53.2044 C.3     1  ZINC001083519372    0.0300
      9 C9         -7.6666    0.6842   52.1023 C.3     1  ZINC001083519372    0.1500
     10 H10        -7.9792    1.3416   51.2910 H       1  ZINC001083519372    0.1200
     11 N11        -6.3871    1.1270   52.6620 N.am    1  ZINC001083519372   -0.6900
     12 C12        -6.1635    2.4385   52.8772 C.2     1  ZINC001083519372    0.5600
     13 O13        -7.0242    3.2542   52.6083 O.2     1  ZINC001083519372   -0.5100
     14 C14        -4.8747    2.8846   53.4390 C.2     1  ZINC001083519372    0.1400
     15 C15        -4.8290    3.5574   54.6303 C.2     1  ZINC001083519372   -0.1500
     16 C16        -3.5891    3.9681   55.1378 C.2     1  ZINC001083519372    0.1800
     17 N17        -2.4837    3.7118   54.4804 N.2     1  ZINC001083519372   -0.4400
     18 C18        -2.5072    3.0560   53.3155 C.2     1  ZINC001083519372    0.2500
     19 C19        -1.5035    2.6653   52.4357 C.2     1  ZINC001083519372   -0.2500
     20 C20        -2.1062    2.0096   51.3750 C.2     1  ZINC001083519372    0.1000
     21 N21        -3.4069    1.9855   51.5686 N.2     1  ZINC001083519372   -0.3100
     22 N22        -3.6954    2.6271   52.7779 N.pl3   1  ZINC001083519372   -0.3100
     23 C23        -7.5777   -0.7807   51.6161 C.3     1  ZINC001083519372    0.0900
     24 H24        -7.4506   -0.8131   50.5340 H       1  ZINC001083519372    0.0800
     25 O25        -6.4949   -1.4529   52.2623 O.3     1  ZINC001083519372   -0.5600
     26 C26        -8.9208   -1.4192   52.0158 C.3     1  ZINC001083519372    0.0100
     27 N27       -10.9369   -3.3690   53.1551 N.2     1  ZINC001083519372   -0.4800
     28 C28       -11.8813   -4.0959   52.6293 C.2     1  ZINC001083519372    0.1700
     29 O29       -12.9192   -3.3032   52.3304 O.3     1  ZINC001083519372   -0.2000
     30 H30       -12.1130    0.1221   51.1198 H       1  ZINC001083519372    0.0600
     31 H31       -13.3891   -0.8677   50.3715 H       1  ZINC001083519372    0.0600
     32 H32       -13.7864    0.7254   51.0589 H       1  ZINC001083519372    0.0700
     33 H33       -13.2243   -0.1118   53.3241 H       1  ZINC001083519372    0.1000
     34 H34       -15.1499   -1.9217   51.7967 H       1  ZINC001083519372    0.0600
     35 H35       -15.1281   -1.6829   53.5604 H       1  ZINC001083519372    0.0600
     36 H36       -15.5473   -0.3286   52.4840 H       1  ZINC001083519372    0.0700
     37 H37       -11.2545   -0.1540   54.0908 H       1  ZINC001083519372    0.0900
     38 H38        -9.9318   -1.2515   54.5541 H       1  ZINC001083519372    0.0600
     39 H39        -9.2228    1.5925   53.3409 H       1  ZINC001083519372    0.1000
     40 H40        -8.3293    0.2596   54.1422 H       1  ZINC001083519372    0.0600
     41 H41        -5.7008    0.4762   52.8777 H       1  ZINC001083519372    0.4300
     42 H42        -5.7384    3.7696   55.1727 H       1  ZINC001083519372    0.1800
     43 H43        -3.5435    4.4999   56.0768 H       1  ZINC001083519372    0.1900
     44 H44        -0.4450    2.8418   52.5574 H       1  ZINC001083519372    0.1700
     45 H45        -1.5909    1.5863   50.5255 H       1  ZINC001083519372    0.2000
     46 H46        -6.5982   -1.5346   53.2203 H       1  ZINC001083519372    0.3900
     47 H47        -8.7495   -2.2361   52.7169 H       1  ZINC001083519372    0.0700
     48 H48        -9.4346   -1.7894   51.1287 H       1  ZINC001083519372    0.0900
     49 H49       -11.8366   -5.1624   52.4652 H       1  ZINC001083519372    0.2500
@<TRIPOS>BOND
     1     1     2    1
     2     1    30    1
     3     1    31    1
     4     1    32    1
     5     2     3    1
     6     2     4    1
     7     2    33    1
     8     3    34    1
     9     3    35    1
    10     3    36    1
    11     4    29    1
    12     4     5    2
    13     5     6    1
    14     5    27    1
    15     6     7    1
    16     6    37    1
    17     6    38    1
    18     7    26    1
    19     7     8    1
    20     8     9    1
    21     8    39    1
    22     8    40    1
    23     9    10    1
    24     9    11    1
    25     9    23    1
    26    11    12   am
    27    11    41    1
    28    12    13    2
    29    12    14    1
    30    14    22    1
    31    14    15    2
    32    15    16    1
    33    15    42    1
    34    16    17    2
    35    16    43    1
    36    17    18    1
    37    18    22    1
    38    18    19    2
    39    19    20    1
    40    19    44    1
    41    20    21    2
    42    20    45    1
    43    21    22    1
    44    23    24    1
    45    23    25    1
    46    23    26    1
    47    25    46    1
    48    26    47    1
    49    26    48    1
    50    27    28    2
    51    28    29    1
    52    28    49    1
@<TRIPOS>SUBSTRUCTURE
     1 ZINC001083519372        1 TEMP              0 ****  ****    0 ROOT


##########                                Name:    ZINC000512699033
##########                DOCK_Rotatable_Bonds:                   9
##########                         Heavy_Atoms:                  30
##########                    Molecular_Weight:              405.54
##########                DOCK_Rotatable_Bonds:                   9
##########                       Formal_Charge:           0.0199988
##########                     HBond_Acceptors:                   5
##########                        HBond_Donors:                   2
##########                         Heavy_Atoms:                  30
##########                          Grid_Score:          -35.170280
##########                     Grid_vdw_energy:          -33.591385
##########                      Grid_es_energy:           -1.578894
##########           Internal_energy_repulsive:           15.831921

@<TRIPOS>MOLECULE
ZINC000512699033
 61 64 1 0 0
SMALL
USER_CHARGES


@<TRIPOS>ATOM
      1 O1        -11.0655   -2.9033   60.5035 O.2     1  ZINC000512699033   -0.5100
      2 C2        -10.9802   -1.8351   59.9355 C.2     1  ZINC000512699033    0.5200
      3 C3         -9.6263   -1.2276   59.6727 C.3     1  ZINC000512699033   -0.1500
      4 C4         -9.5880    0.1951   60.2343 C.3     1  ZINC000512699033    0.1300
      5 N5         -9.0606    0.1667   61.6008 N.am    1  ZINC000512699033   -0.7300
      6 C6         -9.9050    0.2171   62.6500 C.2     1  ZINC000512699033    0.5200
      7 O7        -11.1012    0.2876   62.4631 O.2     1  ZINC000512699033   -0.5300
      8 C8         -9.3626    0.1861   64.0558 C.3     1  ZINC000512699033   -0.1100
      9 C9         -8.0406    0.9542   64.1094 C.3     1  ZINC000512699033   -0.1100
     10 C10        -7.4900    0.9226   65.5367 C.3     1  ZINC000512699033   -0.1200
     11 C11        -8.4972    1.5740   66.4864 C.3     1  ZINC000512699033   -0.1200
     12 C12        -9.8193    0.8058   66.4326 C.3     1  ZINC000512699033   -0.1200
     13 C13       -10.3699    0.8374   65.0055 C.3     1  ZINC000512699033   -0.1000
     14 N14       -12.0958   -1.1940   59.5344 N.am    1  ZINC000512699033   -0.6600
     15 C15       -13.3529   -1.7582   59.7784 C.ar    1  ZINC000512699033    0.1700
     16 C16       -13.8136   -1.8937   61.0812 C.ar    1  ZINC000512699033   -0.1400
     17 C17       -15.0553   -2.4505   61.3187 C.ar    1  ZINC000512699033   -0.1000
     18 C18       -15.8388   -2.8732   60.2608 C.ar    1  ZINC000512699033   -0.1400
     19 C19       -15.3827   -2.7396   58.9620 C.ar    1  ZINC000512699033   -0.0900
     20 C20       -14.1448   -2.1785   58.7176 C.ar    1  ZINC000512699033   -0.1200
     21 C21       -13.6486   -2.0333   57.3021 C.3     1  ZINC000512699033    0.0900
     22 N22       -13.0986   -3.3155   56.8421 N.3     1  ZINC000512699033   -0.4700
     23 C23       -14.1803   -4.2734   56.5259 C.3     1  ZINC000512699033    0.0500
     24 C24       -13.5585   -5.1244   55.3949 C.3     1  ZINC000512699033   -0.0900
     25 C25       -12.5359   -4.1837   54.7891 C.ar    1  ZINC000512699033   -0.1400
     26 C26       -11.8583   -4.2193   53.5888 C.ar    1  ZINC000512699033   -0.0800
     27 C27       -10.9639   -3.2140   53.2674 C.ar    1  ZINC000512699033   -0.1400
     28 C28       -10.7507   -2.1729   54.1520 C.ar    1  ZINC000512699033   -0.0900
     29 C29       -11.4245   -2.1338   55.3551 C.ar    1  ZINC000512699033   -0.1400
     30 C30       -12.3248   -3.1442   55.6875 C.ar    1  ZINC000512699033    0.0900
     31 H31        -8.8576   -1.8300   60.1565 H       1  ZINC000512699033    0.1100
     32 H32        -9.4432   -1.1991   58.5985 H       1  ZINC000512699033    0.1000
     33 H33        -8.9450    0.8151   59.6095 H       1  ZINC000512699033    0.0800
     34 H34       -10.5959    0.6098   60.2423 H       1  ZINC000512699033    0.0800
     35 H35        -8.1039    0.1115   61.7503 H       1  ZINC000512699033    0.4000
     36 H36        -9.1947   -0.8478   64.3576 H       1  ZINC000512699033    0.1000
     37 H37        -7.3230    0.4902   63.4328 H       1  ZINC000512699033    0.0700
     38 H38        -8.2085    1.9880   63.8076 H       1  ZINC000512699033    0.0700
     39 H39        -7.3220   -0.1112   65.8384 H       1  ZINC000512699033    0.0600
     40 H40        -6.5481    1.4699   65.5749 H       1  ZINC000512699033    0.0700
     41 H41        -8.1050    1.5515   67.5031 H       1  ZINC000512699033    0.0600
     42 H42        -8.6652    2.6078   66.1844 H       1  ZINC000512699033    0.0600
     43 H43        -9.6514   -0.2280   66.7345 H       1  ZINC000512699033    0.0600
     44 H44       -10.5369    1.2699   67.1093 H       1  ZINC000512699033    0.0700
     45 H45       -10.5378    1.8712   64.7037 H       1  ZINC000512699033    0.0700
     46 H46       -11.3118    0.2901   64.9673 H       1  ZINC000512699033    0.0700
     47 H47       -12.0273   -0.3417   59.0765 H       1  ZINC000512699033    0.4200
     48 H48       -13.2017   -1.5643   61.9080 H       1  ZINC000512699033    0.1500
     49 H49       -15.4141   -2.5562   62.3318 H       1  ZINC000512699033    0.1300
     50 H50       -16.8088   -3.3089   60.4492 H       1  ZINC000512699033    0.1200
     51 H51       -15.9970   -3.0707   58.1378 H       1  ZINC000512699033    0.1200
     52 H52       -14.4756   -1.7397   56.6555 H       1  ZINC000512699033    0.0600
     53 H53       -12.8708   -1.2705   57.2662 H       1  ZINC000512699033    0.0900
     54 H54       -14.4139   -4.8925   57.3920 H       1  ZINC000512699033    0.1000
     55 H55       -15.0688   -3.7503   56.1722 H       1  ZINC000512699033    0.0600
     56 H56       -13.0734   -6.0117   55.8017 H       1  ZINC000512699033    0.0900
     57 H57       -14.3139   -5.3993   54.6587 H       1  ZINC000512699033    0.0800
     58 H58       -12.0258   -5.0331   52.8989 H       1  ZINC000512699033    0.1200
     59 H59       -10.4328   -3.2427   52.3275 H       1  ZINC000512699033    0.1300
     60 H60       -10.0536   -1.3874   53.9001 H       1  ZINC000512699033    0.1300
     61 H61       -11.2532   -1.3179   56.0418 H       1  ZINC000512699033    0.1200
@<TRIPOS>BOND
     1     1     2    2
     2     2     3    1
     3     2    14   am
     4     3     4    1
     5     3    31    1
     6     3    32    1
     7     4     5    1
     8     4    33    1
     9     4    34    1
    10     5     6   am
    11     5    35    1
    12     6     7    2
    13     6     8    1
    14     8    13    1
    15     8     9    1
    16     8    36    1
    17     9    10    1
    18     9    37    1
    19     9    38    1
    20    10    11    1
    21    10    39    1
    22    10    40    1
    23    11    12    1
    24    11    41    1
    25    11    42    1
    26    12    13    1
    27    12    43    1
    28    12    44    1
    29    13    45    1
    30    13    46    1
    31    14    15    1
    32    14    47    1
    33    15    20   ar
    34    15    16   ar
    35    16    17   ar
    36    16    48    1
    37    17    18   ar
    38    17    49    1
    39    18    19   ar
    40    18    50    1
    41    19    20   ar
    42    19    51    1
    43    20    21    1
    44    21    22    1
    45    21    52    1
    46    21    53    1
    47    22    30    1
    48    22    23    1
    49    23    24    1
    50    23    54    1
    51    23    55    1
    52    24    25    1
    53    24    56    1
    54    24    57    1
    55    25    30   ar
    56    25    26   ar
    57    26    27   ar
    58    26    58    1
    59    27    28   ar
    60    27    59    1
    61    28    29   ar
    62    28    60    1
    63    29    30   ar
    64    29    61    1
@<TRIPOS>SUBSTRUCTURE
     1 ZINC000512699033        1 TEMP              0 ****  ****    0 ROOT


##########                                Name:    ZINC000150894060
##########                DOCK_Rotatable_Bonds:                  10
##########                         Heavy_Atoms:                  27
##########                    Molecular_Weight:              366.42
##########                DOCK_Rotatable_Bonds:                  10
##########                       Formal_Charge:        -6.70552e-07
##########                     HBond_Acceptors:                   7
##########                        HBond_Donors:                   2
##########                         Heavy_Atoms:                  27
##########                          Grid_Score:          -35.111912
##########                     Grid_vdw_energy:          -34.618145
##########                      Grid_es_energy:           -0.493767
##########           Internal_energy_repulsive:            8.563169

@<TRIPOS>MOLECULE
ZINC000150894060
 49 51 1 0 0
SMALL
USER_CHARGES


@<TRIPOS>ATOM
      1 C1        -10.8628   -3.1898   55.9958 C.3     1  ZINC000150894060   -0.1000
      2 C2        -12.1502   -3.9733   55.9881 C.2     1  ZINC000150894060   -0.0800
      3 C3        -13.1188   -3.9399   55.0264 C.2     1  ZINC000150894060   -0.1000
      4 C4        -13.0934   -3.1277   53.8054 C.2     1  ZINC000150894060    0.6100
      5 O5        -14.0802   -2.4981   53.4729 O.2     1  ZINC000150894060   -0.5100
      6 N6        -11.9772   -3.0787   53.0518 N.am    1  ZINC000150894060   -0.7200
      7 C7        -11.9512   -2.2660   51.8332 C.3     1  ZINC000150894060    0.1200
      8 C8        -11.1168   -1.0070   52.0775 C.3     1  ZINC000150894060   -0.1500
      9 C9         -9.6312   -1.3728   52.0829 C.3     1  ZINC000150894060    0.1200
     10 N10        -8.8353   -0.1785   52.3768 N.am    1  ZINC000150894060   -0.7300
     11 C11        -7.4932   -0.2174   52.2594 C.2     1  ZINC000150894060    0.5600
     12 O12        -6.9433   -1.2429   51.9082 O.2     1  ZINC000150894060   -0.5300
     13 C13        -6.6899    0.9874   52.5575 C.ar    1  ZINC000150894060   -0.1300
     14 C14        -7.2338    2.0212   53.3214 C.ar    1  ZINC000150894060   -0.0900
     15 C15        -6.4786    3.1425   53.5965 C.ar    1  ZINC000150894060   -0.0900
     16 C16        -5.1848    3.2438   53.1166 C.ar    1  ZINC000150894060   -0.0800
     17 C17        -4.3660    4.4718   53.4206 C.3     1  ZINC000150894060    0.1700
     18 N18        -3.2704    4.1163   54.3260 N.pl3   1  ZINC000150894060   -0.3700
     19 C19        -3.3634    3.3169   55.4093 C.2     1  ZINC000150894060    0.0500
     20 C20        -2.1355    3.2414   55.9727 C.2     1  ZINC000150894060   -0.2700
     21 C21        -1.2621    4.0211   55.2075 C.2     1  ZINC000150894060    0.0400
     22 N22        -1.9401    4.5412   54.2166 N.2     1  ZINC000150894060   -0.2900
     23 C23        -4.6395    2.2224   52.3593 C.ar    1  ZINC000150894060   -0.1100
     24 C24        -5.3820    1.0934   52.0814 C.ar    1  ZINC000150894060   -0.0600
     25 O25       -14.1034   -4.7849   55.3960 O.3     1  ZINC000150894060   -0.1700
     26 C26       -13.7853   -5.3533   56.5662 C.2     1  ZINC000150894060    0.0000
     27 C27       -12.5829   -4.8833   56.9652 C.2     1  ZINC000150894060   -0.2300
     28 H28       -10.0845   -3.7647   55.4940 H       1  ZINC000150894060    0.0800
     29 H29       -11.0098   -2.2443   55.4737 H       1  ZINC000150894060    0.0900
     30 H30       -10.5630   -2.9936   57.0253 H       1  ZINC000150894060    0.0700
     31 H31       -11.1909   -3.5815   53.3163 H       1  ZINC000150894060    0.4100
     32 H32       -11.5090   -2.8430   51.0211 H       1  ZINC000150894060    0.0800
     33 H33       -12.9684   -1.9812   51.5646 H       1  ZINC000150894060    0.0800
     34 H34       -11.3100   -0.2836   51.2854 H       1  ZINC000150894060    0.0800
     35 H35       -11.3876   -0.5728   53.0400 H       1  ZINC000150894060    0.0800
     36 H36        -9.4461   -2.1294   52.8454 H       1  ZINC000150894060    0.0800
     37 H37        -9.3501   -1.7653   51.1057 H       1  ZINC000150894060    0.0800
     38 H38        -9.2742    0.6403   52.6558 H       1  ZINC000150894060    0.4000
     39 H39        -8.2438    1.9438   53.6959 H       1  ZINC000150894060    0.1300
     40 H40        -6.8984    3.9432   54.1874 H       1  ZINC000150894060    0.1300
     41 H41        -3.9557    4.8735   52.4941 H       1  ZINC000150894060    0.1100
     42 H42        -4.9989    5.2227   53.8933 H       1  ZINC000150894060    0.1000
     43 H43        -4.2578    2.8260   55.7634 H       1  ZINC000150894060    0.1700
     44 H44        -1.8758    2.6787   56.8573 H       1  ZINC000150894060    0.1500
     45 H45        -0.2089    4.1650   55.3986 H       1  ZINC000150894060    0.1800
     46 H46        -3.6289    2.3074   51.9879 H       1  ZINC000150894060    0.1300
     47 H47        -4.9551    0.2966   51.4903 H       1  ZINC000150894060    0.1400
     48 H48       -14.3886   -6.0722   57.1008 H       1  ZINC000150894060    0.2100
     49 H49       -12.0568   -5.1524   57.8693 H       1  ZINC000150894060    0.1600
@<TRIPOS>BOND
     1     1     2    1
     2     1    28    1
     3     1    29    1
     4     1    30    1
     5     2    27    1
     6     2     3    2
     7     3     4    1
     8     3    25    1
     9     4     5    2
    10     4     6   am
    11     6     7    1
    12     6    31    1
    13     7     8    1
    14     7    32    1
    15     7    33    1
    16     8     9    1
    17     8    34    1
    18     8    35    1
    19     9    10    1
    20     9    36    1
    21     9    37    1
    22    10    11   am
    23    10    38    1
    24    11    12    2
    25    11    13    1
    26    13    24   ar
    27    13    14   ar
    28    14    15   ar
    29    14    39    1
    30    15    16   ar
    31    15    40    1
    32    16    17    1
    33    16    23   ar
    34    17    18    1
    35    17    41    1
    36    17    42    1
    37    18    22    1
    38    18    19    1
    39    19    20    2
    40    19    43    1
    41    20    21    1
    42    20    44    1
    43    21    22    2
    44    21    45    1
    45    23    24   ar
    46    23    46    1
    47    24    47    1
    48    25    26    1
    49    26    27    2
    50    26    48    1
    51    27    49    1
@<TRIPOS>SUBSTRUCTURE
     1 ZINC000150894060        1 TEMP              0 ****  ****    0 ROOT


##########                                Name:    ZINC000859608860
##########                DOCK_Rotatable_Bonds:                   8
##########                         Heavy_Atoms:                  24
##########                    Molecular_Weight:             394.268
##########                DOCK_Rotatable_Bonds:                   8
##########                       Formal_Charge:          -0.0200003
##########                     HBond_Acceptors:                   6
##########                        HBond_Donors:                   1
##########                         Heavy_Atoms:                  24
##########                          Grid_Score:          -35.051472
##########                     Grid_vdw_energy:          -34.797028
##########                      Grid_es_energy:           -0.254445
##########           Internal_energy_repulsive:            8.421111

@<TRIPOS>MOLECULE
ZINC000859608860
 44 45 1 0 0
SMALL
USER_CHARGES


@<TRIPOS>ATOM
      1 C1        -13.7476   -5.2948   56.9257 C.3     1  ZINC000859608860   -0.1400
      2 C2        -13.2491   -4.0629   56.1674 C.3     1  ZINC000859608860   -0.0800
      3 C3        -14.2236   -2.9031   56.3818 C.3     1  ZINC000859608860   -0.1400
      4 C4        -11.8653   -3.6692   56.6879 C.3     1  ZINC000859608860   -0.1400
      5 C5        -13.1599   -4.3847   54.6743 C.3     1  ZINC000859608860    0.1300
      6 N6        -12.7208   -3.1934   53.9434 N.am    1  ZINC000859608860   -0.7300
      7 C7        -12.0524   -3.3245   52.7805 C.2     1  ZINC000859608860    0.5100
      8 O8        -11.8131   -4.4287   52.3398 O.2     1  ZINC000859608860   -0.5100
      9 C9        -11.6023   -2.0990   52.0277 C.3     1  ZINC000859608860    0.0500
     10 O10       -10.2235   -1.7996   52.3706 O.3     1  ZINC000859608860   -0.3100
     11 C11        -9.7689   -0.5692   52.0599 C.2     1  ZINC000859608860    0.5600
     12 O12       -10.5549    0.3275   51.8241 O.2     1  ZINC000859608860   -0.5100
     13 C13        -8.3211   -0.3116   52.0061 C.2     1  ZINC000859608860   -0.0400
     14 C14        -7.7108    0.8989   52.1679 C.2     1  ZINC000859608860    0.0500
     15 N15        -6.3730    0.6839   52.0428 N.pl3   1  ZINC000859608860   -0.4100
     16 C16        -5.3654    1.6546   52.1380 C.ar    1  ZINC000859608860    0.1400
     17 C17        -4.1217    1.4241   51.5657 C.ar    1  ZINC000859608860   -0.1200
     18 C18        -3.1311    2.3819   51.6604 C.ar    1  ZINC000859608860   -0.0600
     19 C19        -3.3774    3.5701   52.3251 C.ar    1  ZINC000859608860   -0.1000
     20 Br20       -2.0187    4.8791   52.4530 Br      1  ZINC000859608860   -0.0300
     21 C21        -4.6161    3.8023   52.8959 C.ar    1  ZINC000859608860   -0.0600
     22 C22        -5.6116    2.8498   52.7998 C.ar    1  ZINC000859608860   -0.1200
     23 C23        -6.1902   -0.6445   51.8085 C.2     1  ZINC000859608860    0.2000
     24 N24        -7.3494   -1.2358   51.7923 N.2     1  ZINC000859608860   -0.4300
     25 H25       -14.7335   -5.5753   56.5550 H       1  ZINC000859608860    0.0500
     26 H26       -13.0533   -6.1210   56.7729 H       1  ZINC000859608860    0.0600
     27 H27       -13.8111   -5.0656   57.9894 H       1  ZINC000859608860    0.0600
     28 H28       -14.2871   -2.6739   57.4456 H       1  ZINC000859608860    0.0600
     29 H29       -13.8684   -2.0255   55.8417 H       1  ZINC000859608860    0.0600
     30 H30       -15.2095   -3.1836   56.0111 H       1  ZINC000859608860    0.0500
     31 H31       -11.1710   -4.4955   56.5350 H       1  ZINC000859608860    0.0600
     32 H32       -11.5101   -2.7917   56.1477 H       1  ZINC000859608860    0.0600
     33 H33       -11.9288   -3.4400   57.7516 H       1  ZINC000859608860    0.0600
     34 H34       -12.4432   -5.1912   54.5186 H       1  ZINC000859608860    0.0700
     35 H35       -14.1396   -4.6938   54.3101 H       1  ZINC000859608860    0.0700
     36 H36       -12.9111   -2.3102   54.2965 H       1  ZINC000859608860    0.4000
     37 H37       -11.6786   -2.2824   50.9560 H       1  ZINC000859608860    0.1000
     38 H38       -12.2355   -1.2538   52.2977 H       1  ZINC000859608860    0.1000
     39 H39        -8.1963    1.8448   52.3581 H       1  ZINC000859608860    0.2000
     40 H40        -3.9289    0.4966   51.0471 H       1  ZINC000859608860    0.1400
     41 H41        -2.1634    2.2028   51.2157 H       1  ZINC000859608860    0.1500
     42 H42        -4.8059    4.7307   53.4143 H       1  ZINC000859608860    0.1500
     43 H43        -6.5783    3.0316   53.2456 H       1  ZINC000859608860    0.1500
     44 H44        -5.2365   -1.1302   51.6633 H       1  ZINC000859608860    0.2200
@<TRIPOS>BOND
     1     1     2    1
     2     1    25    1
     3     1    26    1
     4     1    27    1
     5     2     3    1
     6     2     4    1
     7     2     5    1
     8     3    28    1
     9     3    29    1
    10     3    30    1
    11     4    31    1
    12     4    32    1
    13     4    33    1
    14     5     6    1
    15     5    34    1
    16     5    35    1
    17     6     7   am
    18     6    36    1
    19     7     8    2
    20     7     9    1
    21     9    10    1
    22     9    37    1
    23     9    38    1
    24    10    11    1
    25    11    12    2
    26    11    13    1
    27    13    24    1
    28    13    14    2
    29    14    15    1
    30    14    39    1
    31    15    16    1
    32    15    23    1
    33    16    22   ar
    34    16    17   ar
    35    17    18   ar
    36    17    40    1
    37    18    19   ar
    38    18    41    1
    39    19    20    1
    40    19    21   ar
    41    21    22   ar
    42    21    42    1
    43    22    43    1
    44    23    24    2
    45    23    44    1
@<TRIPOS>SUBSTRUCTURE
     1 ZINC000859608860        1 TEMP              0 ****  ****    0 ROOT


##########                                Name:    ZINC000766421809
##########                DOCK_Rotatable_Bonds:                   7
##########                         Heavy_Atoms:                  26
##########                    Molecular_Weight:             358.372
##########                DOCK_Rotatable_Bonds:                   7
##########                       Formal_Charge:         4.61936e-07
##########                     HBond_Acceptors:                   8
##########                        HBond_Donors:                   0
##########                         Heavy_Atoms:                  26
##########                          Grid_Score:          -35.006554
##########                     Grid_vdw_energy:          -34.955708
##########                      Grid_es_energy:           -0.050844
##########           Internal_energy_repulsive:            6.954724

@<TRIPOS>MOLECULE
ZINC000766421809
 45 47 1 0 0
SMALL
USER_CHARGES


@<TRIPOS>ATOM
      1 C1          4.0210    0.1804   46.3761 C.3     1  ZINC000766421809   -0.0700
      2 C2          2.5233    0.3403   46.3251 C.2     1  ZINC000766421809    0.0700
      3 N3          1.6441   -0.6179   46.4687 N.2     1  ZINC000766421809   -0.2900
      4 N4          0.3648   -0.0585   46.3559 N.pl3   1  ZINC000766421809   -0.3700
      5 C5         -0.9045   -0.7834   46.4548 C.3     1  ZINC000766421809    0.1000
      6 C6          0.5080    1.2658   46.1399 C.2     1  ZINC000766421809    0.0700
      7 C7         -0.6078    2.2621   45.9578 C.3     1  ZINC000766421809    0.1400
      8 O8         -1.1169    2.6617   47.2575 O.3     1  ZINC000766421809   -0.3400
      9 C9         -0.3859    3.5476   47.9522 C.2     1  ZINC000766421809    0.4700
     10 O10         0.6881    3.9070   47.5312 O.2     1  ZINC000766421809   -0.5000
     11 C11        -0.9049    4.0940   49.2572 C.3     1  ZINC000766421809   -0.1100
     12 C12        -0.4413    3.1964   50.4063 C.3     1  ZINC000766421809   -0.0200
     13 C13        -1.6075    2.8987   51.3131 C.2     1  ZINC000766421809    0.1900
     14 N14        -2.7422    2.3450   50.9648 N.2     1  ZINC000766421809   -0.4700
     15 C15        -3.4768    2.2781   52.0982 C.2     1  ZINC000766421809    0.2200
     16 C16        -4.8482    1.7266   52.2279 C.ar    1  ZINC000766421809   -0.0300
     17 C17        -5.8524    2.4849   52.8263 C.ar    1  ZINC000766421809   -0.0500
     18 C18        -7.1265    1.9685   52.9445 C.ar    1  ZINC000766421809   -0.1500
     19 C19        -7.4077    0.6977   52.4697 C.ar    1  ZINC000766421809    0.1200
     20 F20        -8.6564    0.1956   52.5878 F       1  ZINC000766421809   -0.1300
     21 C21        -6.4120   -0.0597   51.8735 C.ar    1  ZINC000766421809   -0.1200
     22 C22        -6.7241   -1.4410   51.3579 C.3     1  ZINC000766421809   -0.1200
     23 C23        -5.1369    0.4510   51.7465 C.ar    1  ZINC000766421809   -0.0600
     24 N24        -2.7518    2.7902   53.0588 N.2     1  ZINC000766421809   -0.3700
     25 O25        -1.6760    3.1448   52.6252 O.3     1  ZINC000766421809    0.0900
     26 C26         1.8331    1.5398   46.1219 C.2     1  ZINC000766421809   -0.2400
     27 H27         4.3648    0.3038   47.4031 H       1  ZINC000766421809    0.0800
     28 H28         4.2927   -0.8129   46.0188 H       1  ZINC000766421809    0.0700
     29 H29         4.4887    0.9347   45.7433 H       1  ZINC000766421809    0.0800
     30 H30        -1.2355   -0.7965   47.4931 H       1  ZINC000766421809    0.0800
     31 H31        -1.6554   -0.2866   45.8403 H       1  ZINC000766421809    0.0900
     32 H32        -0.7671   -1.8063   46.1043 H       1  ZINC000766421809    0.0900
     33 H33        -0.2301    3.1382   45.4305 H       1  ZINC000766421809    0.0900
     34 H34        -1.4103    1.8068   45.3774 H       1  ZINC000766421809    0.0900
     35 H35        -0.5211    5.1032   49.4071 H       1  ZINC000766421809    0.1200
     36 H36        -1.9943    4.1195   49.2329 H       1  ZINC000766421809    0.1200
     37 H37        -0.0477    2.2636   50.0026 H       1  ZINC000766421809    0.1200
     38 H38         0.3388    3.7050   50.9727 H       1  ZINC000766421809    0.1200
     39 H39        -5.6338    3.4754   53.1973 H       1  ZINC000766421809    0.1500
     40 H40        -7.9054    2.5556   53.4081 H       1  ZINC000766421809    0.1500
     41 H41        -7.0452   -1.3768   50.3184 H       1  ZINC000766421809    0.0800
     42 H42        -5.8321   -2.0639   51.4249 H       1  ZINC000766421809    0.0800
     43 H43        -7.5206   -1.8812   51.9578 H       1  ZINC000766421809    0.0700
     44 H44        -4.3615   -0.1400   51.2818 H       1  ZINC000766421809    0.1400
     45 H45         2.2789    2.5119   45.9711 H       1  ZINC000766421809    0.1500
@<TRIPOS>BOND
     1     1     2    1
     2     1    27    1
     3     1    28    1
     4     1    29    1
     5     2    26    1
     6     2     3    2
     7     3     4    1
     8     4     5    1
     9     4     6    1
    10     5    30    1
    11     5    31    1
    12     5    32    1
    13     6     7    1
    14     6    26    2
    15     7     8    1
    16     7    33    1
    17     7    34    1
    18     8     9    1
    19     9    10    2
    20     9    11    1
    21    11    12    1
    22    11    35    1
    23    11    36    1
    24    12    13    1
    25    12    37    1
    26    12    38    1
    27    13    25    1
    28    13    14    2
    29    14    15    1
    30    15    16    1
    31    15    24    2
    32    16    23   ar
    33    16    17   ar
    34    17    18   ar
    35    17    39    1
    36    18    19   ar
    37    18    40    1
    38    19    20    1
    39    19    21   ar
    40    21    22    1
    41    21    23   ar
    42    22    41    1
    43    22    42    1
    44    22    43    1
    45    23    44    1
    46    24    25    1
    47    26    45    1
@<TRIPOS>SUBSTRUCTURE
     1 ZINC000766421809        1 TEMP              0 ****  ****    0 ROOT


##########                                Name:    ZINC000045927156
##########                DOCK_Rotatable_Bonds:                   7
##########                         Heavy_Atoms:                  30
##########                    Molecular_Weight:             418.522
##########                DOCK_Rotatable_Bonds:                   7
##########                       Formal_Charge:           0.0200001
##########                     HBond_Acceptors:                   8
##########                        HBond_Donors:                   1
##########                         Heavy_Atoms:                  30
##########                          Grid_Score:          -34.985996
##########                     Grid_vdw_energy:          -34.896954
##########                      Grid_es_energy:           -0.089044
##########           Internal_energy_repulsive:           15.685354

@<TRIPOS>MOLECULE
ZINC000045927156
 52 56 1 0 0
SMALL
USER_CHARGES


@<TRIPOS>ATOM
      1 O1        -10.6498   -0.8464   55.7878 O.2     1  ZINC000045927156   -0.5800
      2 C2        -10.7579   -2.0443   55.6097 C.2     1  ZINC000045927156    0.7300
      3 N3        -10.5963   -2.8963   56.6415 N.am    1  ZINC000045927156   -0.7400
      4 C4        -10.2845   -2.3794   57.9763 C.3     1  ZINC000045927156    0.1700
      5 C5        -11.5486   -2.3021   58.7930 C.ar    1  ZINC000045927156   -0.0700
      6 C6        -12.7637   -2.6224   58.2177 C.ar    1  ZINC000045927156   -0.1000
      7 C7        -13.9235   -2.5515   58.9669 C.ar    1  ZINC000045927156   -0.1100
      8 C8        -13.8677   -2.1607   60.2914 C.ar    1  ZINC000045927156   -0.1100
      9 C9        -12.6521   -1.8412   60.8673 C.ar    1  ZINC000045927156   -0.1000
     10 C10       -11.4921   -1.9161   60.1195 C.ar    1  ZINC000045927156   -0.1000
     11 C11       -10.1670   -1.5679   60.7472 C.3     1  ZINC000045927156    0.1700
     12 N12        -9.8973   -0.1404   60.5580 N.pl3   1  ZINC000045927156   -0.3800
     13 C13       -10.2129    0.8579   61.4012 C.2     1  ZINC000045927156    0.2500
     14 N14        -9.8028    1.9817   60.8714 N.2     1  ZINC000045927156   -0.5400
     15 C15        -9.2233    1.7422   59.6958 C.2     1  ZINC000045927156    0.2000
     16 N16        -9.2520    0.4564   59.4625 N.2     1  ZINC000045927156   -0.3100
     17 N17       -11.0448   -2.5198   54.3817 N.am    1  ZINC000045927156   -0.6200
     18 C18       -11.2082   -3.9415   54.0274 C.3     1  ZINC000045927156    0.1000
     19 C19       -12.1004   -3.9346   52.7610 C.3     1  ZINC000045927156   -0.1300
     20 C20       -11.5787   -2.6757   52.0193 C.3     1  ZINC000045927156   -0.1200
     21 C21       -11.2531   -1.7063   53.1749 C.3     1  ZINC000045927156    0.2300
     22 H22       -12.0837   -1.0167   53.3255 H       1  ZINC000045927156    0.1000
     23 C23        -9.9977   -0.9348   52.8585 C.2     1  ZINC000045927156    0.0900
     24 N24        -8.8675   -1.4748   52.5989 N.2     1  ZINC000045927156   -0.4500
     25 C25        -7.8279   -0.6610   52.3328 C.ar    1  ZINC000045927156    0.0800
     26 C26        -6.4918   -0.9809   52.0192 C.ar    1  ZINC000045927156   -0.0700
     27 C27        -5.5837    0.0061   51.7815 C.ar    1  ZINC000045927156   -0.1100
     28 C28        -5.9546    1.3418   51.8426 C.ar    1  ZINC000045927156   -0.1000
     29 C29        -7.2531    1.6841   52.1467 C.ar    1  ZINC000045927156   -0.0700
     30 C30        -8.1954    0.6880   52.3928 C.ar    1  ZINC000045927156   -0.1800
     31 S31        -9.9079    0.7681   52.7946 S.3     1  ZINC000045927156    0.1200
     32 H32       -10.6866   -3.8517   56.5002 H       1  ZINC000045927156    0.3900
     33 H33        -9.5749   -3.0454   58.4672 H       1  ZINC000045927156    0.1000
     34 H34        -9.8477   -1.3846   57.8879 H       1  ZINC000045927156    0.0700
     35 H35       -12.8073   -2.9278   57.1826 H       1  ZINC000045927156    0.1300
     36 H36       -14.8730   -2.8011   58.5171 H       1  ZINC000045927156    0.1300
     37 H37       -14.7737   -2.1046   60.8766 H       1  ZINC000045927156    0.1300
     38 H38       -12.6085   -1.5354   61.9022 H       1  ZINC000045927156    0.1300
     39 H39       -10.1995   -1.7933   61.8131 H       1  ZINC000045927156    0.1100
     40 H40        -9.3770   -2.1525   60.2760 H       1  ZINC000045927156    0.1000
     41 H41       -10.7175    0.7510   62.3499 H       1  ZINC000045927156    0.2200
     42 H42        -8.7953    2.4890   59.0434 H       1  ZINC000045927156    0.2200
     43 H43       -10.2401   -4.3911   53.8069 H       1  ZINC000045927156    0.0700
     44 H44       -11.7021   -4.4797   54.8364 H       1  ZINC000045927156    0.0800
     45 H45       -11.9405   -4.8333   52.1655 H       1  ZINC000045927156    0.0900
     46 H46       -13.1523   -3.8247   53.0248 H       1  ZINC000045927156    0.0800
     47 H47       -10.6831   -2.9105   51.4441 H       1  ZINC000045927156    0.0900
     48 H48       -12.3532   -2.2586   51.3757 H       1  ZINC000045927156    0.0900
     49 H49        -6.1857   -2.0154   51.9673 H       1  ZINC000045927156    0.1300
     50 H50        -4.5630   -0.2538   51.5430 H       1  ZINC000045927156    0.1400
     51 H51        -5.2238    2.1138   51.6518 H       1  ZINC000045927156    0.1400
     52 H52        -7.5408    2.7239   52.1949 H       1  ZINC000045927156    0.1300
@<TRIPOS>BOND
     1     1     2    2
     2     2     3   am
     3     2    17   am
     4     3     4    1
     5     3    32    1
     6     4     5    1
     7     4    33    1
     8     4    34    1
     9     5    10   ar
    10     5     6   ar
    11     6     7   ar
    12     6    35    1
    13     7     8   ar
    14     7    36    1
    15     8     9   ar
    16     8    37    1
    17     9    10   ar
    18     9    38    1
    19    10    11    1
    20    11    12    1
    21    11    39    1
    22    11    40    1
    23    12    16    1
    24    12    13    1
    25    13    14    2
    26    13    41    1
    27    14    15    1
    28    15    16    2
    29    15    42    1
    30    17    21    1
    31    17    18    1
    32    18    19    1
    33    18    43    1
    34    18    44    1
    35    19    20    1
    36    19    45    1
    37    19    46    1
    38    20    21    1
    39    20    47    1
    40    20    48    1
    41    21    22    1
    42    21    23    1
    43    23    31    1
    44    23    24    2
    45    24    25    1
    46    25    30   ar
    47    25    26   ar
    48    26    27   ar
    49    26    49    1
    50    27    28   ar
    51    27    50    1
    52    28    29   ar
    53    28    51    1
    54    29    30   ar
    55    29    52    1
    56    30    31    1
@<TRIPOS>SUBSTRUCTURE
     1 ZINC000045927156        1 TEMP              0 ****  ****    0 ROOT


##########                                Name:    ZINC000185180600
##########                DOCK_Rotatable_Bonds:                   7
##########                         Heavy_Atoms:                  26
##########                    Molecular_Weight:             395.953
##########                DOCK_Rotatable_Bonds:                   7
##########                       Formal_Charge:          0.00999977
##########                     HBond_Acceptors:                   7
##########                        HBond_Donors:                   0
##########                         Heavy_Atoms:                  26
##########                          Grid_Score:          -34.966103
##########                     Grid_vdw_energy:          -33.350048
##########                      Grid_es_energy:           -1.616054
##########           Internal_energy_repulsive:           19.004143

@<TRIPOS>MOLECULE
ZINC000185180600
 52 53 1 0 0
SMALL
USER_CHARGES


@<TRIPOS>ATOM
      1 C1          2.1258    5.3861   45.2257 C.3     1  ZINC000185180600   -0.1500
      2 C2          1.6328    4.1740   46.0187 C.3     1  ZINC000185180600   -0.0900
      3 C3          0.2633    3.7421   45.4909 C.3     1  ZINC000185180600   -0.1500
      4 C4          2.6271    3.0220   45.8600 C.3     1  ZINC000185180600   -0.1300
      5 C5          2.6815    2.2130   47.1574 C.3     1  ZINC000185180600    0.1300
      6 H6          2.3038    2.8199   47.9802 H       1  ZINC000185180600    0.1100
      7 C7          4.1285    1.8075   47.4452 C.3     1  ZINC000185180600   -0.1600
      8 N8          1.8559    1.0108   47.0183 N.am    1  ZINC000185180600   -0.6000
      9 C9          2.2129   -0.0130   46.0330 C.3     1  ZINC000185180600    0.0700
     10 C10         0.7680    0.8466   47.7966 C.2     1  ZINC000185180600    0.5400
     11 O11         0.0854   -0.1494   47.6824 O.2     1  ZINC000185180600   -0.5300
     12 C12         0.3996    1.9004   48.8089 C.3     1  ZINC000185180600   -0.5000
     13 S13        -1.1837    1.4690   49.5820 S.o     1  ZINC000185180600    1.3200
     14 O14        -2.2092    1.4784   48.5984 O.2     1  ZINC000185180600   -0.8000
     15 C15        -1.4526    2.8316   50.7489 C.3     1  ZINC000185180600   -0.3900
     16 C16        -2.7512    2.6158   51.4825 C.2     1  ZINC000185180600    0.1000
     17 N17        -3.6285    1.6781   51.2295 N.2     1  ZINC000185180600   -0.2800
     18 N18        -4.6921    1.8187   52.1304 N.pl3   1  ZINC000185180600   -0.3200
     19 C19        -5.8353    1.0091   52.1903 C.ar    1  ZINC000185180600    0.1700
     20 C20        -5.7536   -0.3354   51.8543 C.ar    1  ZINC000185180600   -0.1300
     21 C21        -6.8810   -1.1308   51.9140 C.ar    1  ZINC000185180600   -0.0800
     22 C22        -8.0917   -0.5884   52.3080 C.ar    1  ZINC000185180600   -0.0500
     23 Cl23       -9.5072   -1.5908   52.3822 Cl      1  ZINC000185180600   -0.0600
     24 C24        -8.1757    0.7515   52.6436 C.ar    1  ZINC000185180600   -0.0800
     25 C25        -7.0497    1.5495   52.5912 C.ar    1  ZINC000185180600   -0.1100
     26 C26        -4.4209    2.8734   52.9319 C.2     1  ZINC000185180600    0.0600
     27 C27        -3.2236    3.3795   52.5554 C.2     1  ZINC000185180600   -0.2500
     28 H28         1.4175    6.2068   45.3387 H       1  ZINC000185180600    0.0500
     29 H29         3.1015    5.6938   45.6016 H       1  ZINC000185180600    0.0600
     30 H30         2.2096    5.1210   44.1717 H       1  ZINC000185180600    0.0500
     31 H31         1.5490    4.4390   47.0726 H       1  ZINC000185180600    0.0700
     32 H32        -0.4643    4.5317   45.6791 H       1  ZINC000185180600    0.0500
     33 H33         0.3289    3.5566   44.4188 H       1  ZINC000185180600    0.0500
     34 H34        -0.0507    2.8302   45.9988 H       1  ZINC000185180600    0.0500
     35 H35         2.3073    2.3762   45.0422 H       1  ZINC000185180600    0.0700
     36 H36         3.6164    3.4234   45.6404 H       1  ZINC000185180600    0.0800
     37 H37         4.5062    1.2005   46.6224 H       1  ZINC000185180600    0.0600
     38 H38         4.7427    2.7020   47.5487 H       1  ZINC000185180600    0.0700
     39 H39         4.1673    1.2310   48.3696 H       1  ZINC000185180600    0.0600
     40 H40         2.8775   -0.7441   46.4932 H       1  ZINC000185180600    0.0600
     41 H41         1.3090   -0.5125   45.6844 H       1  ZINC000185180600    0.0700
     42 H42         2.7177    0.4560   45.1884 H       1  ZINC000185180600    0.0800
     43 H43         1.1742    1.9560   49.5738 H       1  ZINC000185180600    0.1500
     44 H44         0.3099    2.8662   48.3117 H       1  ZINC000185180600    0.1200
     45 H45        -0.6317    2.8639   51.4653 H       1  ZINC000185180600    0.1400
     46 H46        -1.4960    3.7741   50.2032 H       1  ZINC000185180600    0.1000
     47 H47        -4.8091   -0.7590   51.5460 H       1  ZINC000185180600    0.1400
     48 H48        -6.8179   -2.1768   51.6526 H       1  ZINC000185180600    0.1500
     49 H49        -9.1217    1.1727   52.9504 H       1  ZINC000185180600    0.1400
     50 H50        -7.1157    2.5952   52.8531 H       1  ZINC000185180600    0.1500
     51 H51        -5.0454    3.2427   53.7320 H       1  ZINC000185180600    0.1800
     52 H52        -2.7245    4.2279   52.9998 H       1  ZINC000185180600    0.1700
@<TRIPOS>BOND
     1     1     2    1
     2     1    28    1
     3     1    29    1
     4     1    30    1
     5     2     3    1
     6     2     4    1
     7     2    31    1
     8     3    32    1
     9     3    33    1
    10     3    34    1
    11     4     5    1
    12     4    35    1
    13     4    36    1
    14     5     6    1
    15     5     7    1
    16     5     8    1
    17     7    37    1
    18     7    38    1
    19     7    39    1
    20     8     9    1
    21     8    10   am
    22     9    40    1
    23     9    41    1
    24     9    42    1
    25    10    11    2
    26    10    12    1
    27    12    13    1
    28    12    43    1
    29    12    44    1
    30    13    14    2
    31    13    15    1
    32    15    16    1
    33    15    45    1
    34    15    46    1
    35    16    27    1
    36    16    17    2
    37    17    18    1
    38    18    19    1
    39    18    26    1
    40    19    25   ar
    41    19    20   ar
    42    20    21   ar
    43    20    47    1
    44    21    22   ar
    45    21    48    1
    46    22    23    1
    47    22    24   ar
    48    24    25   ar
    49    24    49    1
    50    25    50    1
    51    26    27    2
    52    26    51    1
    53    27    52    1
@<TRIPOS>SUBSTRUCTURE
     1 ZINC000185180600        1 TEMP              0 ****  ****    0 ROOT


##########                                Name:    ZINC000355549087
##########                DOCK_Rotatable_Bonds:                   9
##########                         Heavy_Atoms:                  23
##########                    Molecular_Weight:             336.415
##########                DOCK_Rotatable_Bonds:                   9
##########                       Formal_Charge:        -9.53674e-07
##########                     HBond_Acceptors:                   8
##########                        HBond_Donors:                   4
##########                         Heavy_Atoms:                  23
##########                          Grid_Score:          -34.911755
##########                     Grid_vdw_energy:          -34.467419
##########                      Grid_es_energy:           -0.444335
##########           Internal_energy_repulsive:           13.611945

@<TRIPOS>MOLECULE
ZINC000355549087
 43 44 1 0 0
SMALL
USER_CHARGES


@<TRIPOS>ATOM
      1 C1          2.8095    0.7606   47.1167 C.3     1  <0>        -0.1500
      2 C2          1.5770    0.3803   46.2937 C.3     1  <0>        -0.1200
      3 C3          0.3180    0.5758   47.1409 C.3     1  <0>        -0.1000
      4 H4          0.5073    0.2317   48.1578 H       1  <0>         0.0800
      5 C5         -0.8339   -0.2292   46.5361 C.3     1  <0>        -0.1500
      6 C6         -0.0546    2.0596   47.1658 C.3     1  <0>         0.0900
      7 H7          0.8537    2.6622   47.1759 H       1  <0>         0.1000
      8 O8         -0.8240    2.3770   46.0042 O.3     1  <0>        -0.3500
      9 C9         -0.2793    3.4392   45.2187 C.3     1  <0>         0.0200
     10 C10        -0.8658    2.3531   48.4014 C.2     1  <0>         0.5100
     11 O11        -1.3707    3.4458   48.5499 O.2     1  <0>        -0.4800
     12 N12        -1.0302    1.4014   49.3415 N.am    1  <0>        -0.6200
     13 C13        -1.7797    1.6716   50.4801 C.2     1  <0>         0.2400
     14 N14        -3.0401    1.4079   50.6150 N.2     1  <0>        -0.5000
     15 C15        -3.6009    1.7328   51.7724 C.2     1  <0>         0.1700
     16 C16        -5.0358    1.4907   52.0698 C.2     1  <0>        -0.1100
     17 C17        -5.9368    2.4175   52.5100 C.2     1  <0>         0.0600
     18 N18        -7.1388    1.8100   52.6633 N.pl3   1  <0>        -0.5400
     19 C19        -7.0129    0.4830   52.3201 C.2     1  <0>        -0.0600
     20 C20        -8.0831   -0.5202   52.3474 C.2     1  <0>         0.5900
     21 N21        -9.0712   -0.4269   53.2593 N.am    1  <0>        -0.8600
     22 O22        -8.0786   -1.4366   51.5467 O.2     1  <0>        -0.5300
     23 C23        -5.7169    0.2653   51.9439 C.2     1  <0>        -0.0600
     24 C24        -2.7575    2.3005   52.6533 C.2     1  <0>        -0.3200
     25 S25        -1.1663    2.3923   51.9033 S.3     1  <0>         0.2500
     26 H26         3.7065    0.6213   46.5132 H       1  <0>         0.0600
     27 H27         2.7351    1.8044   47.4214 H       1  <0>         0.0600
     28 H28         2.8651    0.1267   48.0018 H       1  <0>         0.0600
     29 H29         1.5214    1.0141   45.4087 H       1  <0>         0.0600
     30 H30         1.6515   -0.6635   45.9890 H       1  <0>         0.0700
     31 H31        -1.0231    0.1150   45.5193 H       1  <0>         0.0700
     32 H32        -0.5684   -1.2863   46.5184 H       1  <0>         0.0600
     33 H33        -1.7307   -0.0900   47.1397 H       1  <0>         0.0500
     34 H34        -0.9703    3.6860   44.4125 H       1  <0>         0.0900
     35 H35        -0.1277    4.3159   45.8484 H       1  <0>         0.0500
     36 H36         0.6753    3.1259   44.7960 H       1  <0>         0.0500
     37 H37        -0.6254    0.5279   49.2233 H       1  <0>         0.4200
     38 H38        -5.7270    3.4592   52.7033 H       1  <0>         0.1800
     39 H39        -7.9540    2.2400   52.9657 H       1  <0>         0.4200
     40 H40        -9.7794   -1.0896   53.2765 H       1  <0>         0.4000
     41 H41        -9.0741    0.3029   53.8983 H       1  <0>         0.4100
     42 H42        -5.2932   -0.6729   51.6173 H       1  <0>         0.1500
     43 H43        -3.0108    2.6375   53.6476 H       1  <0>         0.1800
@<TRIPOS>BOND
     1     1     2    1
     2     1    26    1
     3     1    27    1
     4     1    28    1
     5     2     3    1
     6     2    29    1
     7     2    30    1
     8     3     4    1
     9     3     5    1
    10     3     6    1
    11     5    31    1
    12     5    32    1
    13     5    33    1
    14     6     7    1
    15     6     8    1
    16     6    10    1
    17     8     9    1
    18     9    34    1
    19     9    35    1
    20     9    36    1
    21    10    11    2
    22    10    12   am
    23    12    13    1
    24    12    37    1
    25    13    25    1
    26    13    14    2
    27    14    15    1
    28    15    16    1
    29    15    24    2
    30    16    23    1
    31    16    17    2
    32    17    18    1
    33    17    38    1
    34    18    19    1
    35    18    39    1
    36    19    20    1
    37    19    23    2
    38    20    21   am
    39    20    22    2
    40    21    40    1
    41    21    41    1
    42    23    42    1
    43    24    25    1
    44    24    43    1
@<TRIPOS>SUBSTRUCTURE
     1 <0>         1 TEMP              0 ****  ****    0 ROOT


##########                                Name:    ZINC000461678839
##########                DOCK_Rotatable_Bonds:                   6
##########                         Heavy_Atoms:                  28
##########                    Molecular_Weight:             404.939
##########                DOCK_Rotatable_Bonds:                   6
##########                       Formal_Charge:          -0.0200003
##########                     HBond_Acceptors:                   7
##########                        HBond_Donors:                   0
##########                         Heavy_Atoms:                  28
##########                          Grid_Score:          -34.796059
##########                     Grid_vdw_energy:          -34.390106
##########                      Grid_es_energy:           -0.405951
##########           Internal_energy_repulsive:           11.141521

@<TRIPOS>MOLECULE
ZINC000461678839
 57 60 1 0 0
SMALL
USER_CHARGES


@<TRIPOS>ATOM
      1 C1        -14.8554   -1.9804   52.2479 C.3     1  ZINC000461678839   -0.1500
      2 C2        -13.4255   -2.5137   52.3565 C.3     1  ZINC000461678839   -0.0900
      3 H3        -13.3879   -3.5183   51.9352 H       1  ZINC000461678839    0.0700
      4 C4        -13.0231   -2.5770   53.8472 C.3     1  ZINC000461678839   -0.1100
      5 C5        -11.8309   -3.4848   53.9913 C.3     1  ZINC000461678839   -0.1200
      6 C6        -10.4906   -2.7331   53.9048 C.3     1  ZINC000461678839    0.0600
      7 N7        -10.4617   -1.7074   52.8390 N.3     1  ZINC000461678839   -0.4600
      8 C8         -9.1702   -1.2548   52.6201 C.2     1  ZINC000461678839    0.3700
      9 N9         -8.1577   -1.9666   52.1844 N.2     1  ZINC000461678839   -0.3100
     10 N10        -7.1096   -1.2276   52.0980 N.2     1  ZINC000461678839   -0.2500
     11 C11        -7.3890   -0.0108   52.4703 C.2     1  ZINC000461678839    0.1700
     12 C12        -6.4320    1.1528   52.5113 C.3     1  ZINC000461678839    0.1500
     13 O13        -5.1866    0.7660   51.9271 O.3     1  ZINC000461678839   -0.3100
     14 C14        -4.2047    1.7050   51.8895 C.ar    1  ZINC000461678839    0.1400
     15 C15        -3.0244    1.4487   51.2072 C.ar    1  ZINC000461678839   -0.2000
     16 C16        -2.0275    2.4043   51.1702 C.ar    1  ZINC000461678839   -0.0700
     17 C17        -2.2055    3.6164   51.8133 C.ar    1  ZINC000461678839   -0.0700
     18 Cl18       -0.9512    4.8155   51.7658 Cl      1  ZINC000461678839   -0.0700
     19 C19        -3.3823    3.8742   52.4940 C.ar    1  ZINC000461678839   -0.0700
     20 C20        -4.3838    2.9233   52.5285 C.ar    1  ZINC000461678839   -0.1400
     21 N21        -8.7129    0.0165   52.8113 N.pl3   1  ZINC000461678839   -0.4600
     22 C22        -9.4793    1.1694   53.2907 C.3     1  ZINC000461678839    0.1200
     23 C23        -9.1683    1.4093   54.7694 C.3     1  ZINC000461678839   -0.1400
     24 H24        -8.1240    1.1791   54.9808 H       1  ZINC000461678839    0.0900
     25 C25       -10.1025    0.5593   55.6644 C.3     1  ZINC000461678839   -0.1500
     26 C26       -10.4401    1.5462   56.8109 C.3     1  ZINC000461678839    0.0500
     27 O27       -10.5435    2.8201   56.1392 O.3     1  ZINC000461678839   -0.3700
     28 C28        -9.4892    2.8654   55.1587 C.3     1  ZINC000461678839    0.0400
     29 C29       -11.0753   -2.1369   51.6055 C.3     1  ZINC000461678839    0.0700
     30 C30       -12.5344   -1.6449   51.5958 C.3     1  ZINC000461678839   -0.1100
     31 H31       -15.1534   -1.9505   51.1998 H       1  ZINC000461678839    0.0500
     32 H32       -15.5304   -2.6354   52.7988 H       1  ZINC000461678839    0.0500
     33 H33       -14.9012   -0.9754   52.6675 H       1  ZINC000461678839    0.0600
     34 H34       -12.7658   -1.5777   54.1986 H       1  ZINC000461678839    0.0700
     35 H35       -13.8539   -2.9695   54.4334 H       1  ZINC000461678839    0.0700
     36 H36       -11.8887   -3.9897   54.9556 H       1  ZINC000461678839    0.0800
     37 H37       -11.8639   -4.2356   53.2019 H       1  ZINC000461678839    0.0700
     38 H38       -10.2992   -2.2481   54.8621 H       1  ZINC000461678839    0.0700
     39 H39        -9.6961   -3.4552   53.7166 H       1  ZINC000461678839    0.0500
     40 H40        -6.8520    1.9885   51.9516 H       1  ZINC000461678839    0.0800
     41 H41        -6.2701    1.4535   53.5464 H       1  ZINC000461678839    0.1000
     42 H42        -2.8847    0.5025   50.7057 H       1  ZINC000461678839    0.1400
     43 H43        -1.1084    2.2051   50.6391 H       1  ZINC000461678839    0.1400
     44 H44        -3.5197    4.8209   52.9951 H       1  ZINC000461678839    0.1400
     45 H45        -5.3022    3.1248   53.0598 H       1  ZINC000461678839    0.1400
     46 H46        -9.2056    2.0529   52.7138 H       1  ZINC000461678839    0.1100
     47 H47       -10.5446    0.9728   53.1707 H       1  ZINC000461678839    0.1000
     48 H48       -11.0029    0.2698   55.1226 H       1  ZINC000461678839    0.0800
     49 H49        -9.5817   -0.3182   56.0475 H       1  ZINC000461678839    0.0900
     50 H50       -11.3882    1.2810   57.2789 H       1  ZINC000461678839    0.1000
     51 H51        -9.6385    1.5656   57.5493 H       1  ZINC000461678839    0.0600
     52 H52        -8.6062    3.3412   55.5855 H       1  ZINC000461678839    0.0500
     53 H53        -9.8229    3.4185   54.2808 H       1  ZINC000461678839    0.1100
     54 H54       -10.5374   -1.7093   50.7594 H       1  ZINC000461678839    0.0900
     55 H55       -11.0532   -3.2248   51.5437 H       1  ZINC000461678839    0.0600
     56 H56       -12.8841   -1.6006   50.5644 H       1  ZINC000461678839    0.0700
     57 H57       -12.5706   -0.6419   52.0209 H       1  ZINC000461678839    0.0700
@<TRIPOS>BOND
     1     1     2    1
     2     1    31    1
     3     1    32    1
     4     1    33    1
     5     2     3    1
     6     2    30    1
     7     2     4    1
     8     4     5    1
     9     4    34    1
    10     4    35    1
    11     5     6    1
    12     5    36    1
    13     5    37    1
    14     6     7    1
    15     6    38    1
    16     6    39    1
    17     7     8    1
    18     7    29    1
    19     8    21    1
    20     8     9    2
    21     9    10    1
    22    10    11    2
    23    11    12    1
    24    11    21    1
    25    12    13    1
    26    12    40    1
    27    12    41    1
    28    13    14    1
    29    14    20   ar
    30    14    15   ar
    31    15    16   ar
    32    15    42    1
    33    16    17   ar
    34    16    43    1
    35    17    18    1
    36    17    19   ar
    37    19    20   ar
    38    19    44    1
    39    20    45    1
    40    21    22    1
    41    22    23    1
    42    22    46    1
    43    22    47    1
    44    23    24    1
    45    23    28    1
    46    23    25    1
    47    25    26    1
    48    25    48    1
    49    25    49    1
    50    26    27    1
    51    26    50    1
    52    26    51    1
    53    27    28    1
    54    28    52    1
    55    28    53    1
    56    29    30    1
    57    29    54    1
    58    29    55    1
    59    30    56    1
    60    30    57    1
@<TRIPOS>SUBSTRUCTURE
     1 ZINC000461678839        1 TEMP              0 ****  ****    0 ROOT


##########                                Name:    ZINC000175255939
##########                DOCK_Rotatable_Bonds:                   8
##########                         Heavy_Atoms:                  28
##########                    Molecular_Weight:             394.375
##########                DOCK_Rotatable_Bonds:                   8
##########                       Formal_Charge:          -0.0399999
##########                     HBond_Acceptors:                   9
##########                        HBond_Donors:                   1
##########                         Heavy_Atoms:                  28
##########                          Grid_Score:          -34.673687
##########                     Grid_vdw_energy:          -34.658333
##########                      Grid_es_energy:           -0.015354
##########           Internal_energy_repulsive:           10.305399

@<TRIPOS>MOLECULE
ZINC000175255939
 48 50 1 0 0
SMALL
USER_CHARGES


@<TRIPOS>ATOM
      1 C1         -1.1190    0.2895   46.3973 C.3     1  ZINC000175255939    0.0300
      2 O2         -1.4117    1.0543   47.5965 O.3     1  ZINC000175255939   -0.3600
      3 C3         -0.4117    1.2118   48.4780 C.2     1  ZINC000175255939    0.4600
      4 O4          0.6855    0.7693   48.2324 O.2     1  ZINC000175255939   -0.5000
      5 C5         -0.6575    1.9406   49.7739 C.3     1  ZINC000175255939   -0.0800
      6 H6         -0.0284    1.5144   50.5554 H       1  ZINC000175255939    0.1100
      7 C7         -0.3190    3.4223   49.5980 C.3     1  ZINC000175255939   -0.1200
      8 C8         -0.5686    4.1621   50.9137 C.3     1  ZINC000175255939   -0.1100
      9 C9         -2.0398    4.0184   51.3084 C.3     1  ZINC000175255939   -0.1200
     10 C10        -2.3783    2.5368   51.4844 C.3     1  ZINC000175255939   -0.1000
     11 H11        -1.7492    2.1107   52.2659 H       1  ZINC000175255939    0.1100
     12 C12        -3.8274    2.3953   51.8732 C.2     1  ZINC000175255939    0.5100
     13 O13        -4.4383    3.3541   52.2956 O.2     1  ZINC000175255939   -0.4800
     14 N14        -4.4445    1.2034   51.7514 N.am    1  ZINC000175255939   -0.6300
     15 C15        -5.7785    1.0728   52.1109 C.2     1  ZINC000175255939    0.2100
     16 C16        -6.6763    0.1814   51.6040 C.2     1  ZINC000175255939   -0.2600
     17 C17        -7.8755    0.4701   52.3057 C.2     1  ZINC000175255939    0.0900
     18 C18        -9.1857   -0.2080   52.1464 C.ar    1  ZINC000175255939   -0.0500
     19 C19        -9.2376   -1.5816   51.9163 C.ar    1  ZINC000175255939   -0.0600
     20 C20       -10.4565   -2.2090   51.7687 C.ar    1  ZINC000175255939   -0.1300
     21 C21       -11.6316   -1.4736   51.8487 C.ar    1  ZINC000175255939    0.1200
     22 O22       -12.8311   -2.0944   51.7028 O.3     1  ZINC000175255939   -0.3200
     23 C23       -13.6480   -2.2097   52.8696 C.3     1  ZINC000175255939    0.4100
     24 F24       -12.8383   -2.1821   54.0103 F       1  ZINC000175255939   -0.2000
     25 F25       -14.5518   -1.1428   52.9134 F       1  ZINC000175255939   -0.2000
     26 C26       -11.5829   -0.1051   52.0779 C.ar    1  ZINC000175255939   -0.1900
     27 C27       -10.3671    0.5266   52.2325 C.ar    1  ZINC000175255939   -0.0500
     28 N28        -7.5939    1.4564   53.1234 N.2     1  ZINC000175255939   -0.3600
     29 O29        -6.4373    1.7957   53.0307 O.3     1  ZINC000175255939    0.1200
     30 C30        -2.1287    1.7969   50.1687 C.3     1  ZINC000175255939   -0.0900
     31 H31        -2.0106    0.2386   45.7723 H       1  ZINC000175255939    0.1000
     32 H32        -0.3147    0.7747   45.8442 H       1  ZINC000175255939    0.0600
     33 H33        -0.8121   -0.7187   46.6753 H       1  ZINC000175255939    0.0600
     34 H34         0.7291    3.5245   49.3168 H       1  ZINC000175255939    0.0800
     35 H35        -0.9481    3.8483   48.8165 H       1  ZINC000175255939    0.0700
     36 H36         0.0606    3.7360   51.6952 H       1  ZINC000175255939    0.0700
     37 H37        -0.3273    5.2176   50.7884 H       1  ZINC000175255939    0.0800
     38 H38        -2.2176    4.5456   52.2458 H       1  ZINC000175255939    0.0700
     39 H39        -2.6689    4.4447   50.5270 H       1  ZINC000175255939    0.0800
     40 H40        -3.9563    0.4369   51.4124 H       1  ZINC000175255939    0.4300
     41 H41        -6.5132   -0.5694   50.8450 H       1  ZINC000175255939    0.1800
     42 H42        -8.3239   -2.1540   51.8533 H       1  ZINC000175255939    0.1400
     43 H43       -10.4972   -3.2734   51.5903 H       1  ZINC000175255939    0.1400
     44 H44       -14.1976   -3.1504   52.8369 H       1  ZINC000175255939    0.1900
     45 H45       -12.4985    0.4645   52.1396 H       1  ZINC000175255939    0.1400
     46 H46       -10.3299    1.5911   52.4111 H       1  ZINC000175255939    0.1400
     47 H47        -2.7578    2.2230   49.3872 H       1  ZINC000175255939    0.0900
     48 H48        -2.3699    0.7414   50.2939 H       1  ZINC000175255939    0.0800
@<TRIPOS>BOND
     1     1     2    1
     2     1    31    1
     3     1    32    1
     4     1    33    1
     5     2     3    1
     6     3     4    2
     7     3     5    1
     8     5     6    1
     9     5    30    1
    10     5     7    1
    11     7     8    1
    12     7    34    1
    13     7    35    1
    14     8     9    1
    15     8    36    1
    16     8    37    1
    17     9    10    1
    18     9    38    1
    19     9    39    1
    20    10    11    1
    21    10    12    1
    22    10    30    1
    23    12    13    2
    24    12    14   am
    25    14    15    1
    26    14    40    1
    27    15    29    1
    28    15    16    2
    29    16    17    1
    30    16    41    1
    31    17    18    1
    32    17    28    2
    33    18    27   ar
    34    18    19   ar
    35    19    20   ar
    36    19    42    1
    37    20    21   ar
    38    20    43    1
    39    21    22    1
    40    21    26   ar
    41    22    23    1
    42    23    24    1
    43    23    25    1
    44    23    44    1
    45    26    27   ar
    46    26    45    1
    47    27    46    1
    48    28    29    1
    49    30    47    1
    50    30    48    1
@<TRIPOS>SUBSTRUCTURE
     1 ZINC000175255939        1 TEMP              0 ****  ****    0 ROOT


##########                                Name:    ZINC000065993627
##########                DOCK_Rotatable_Bonds:                   7
##########                         Heavy_Atoms:                  28
##########                    Molecular_Weight:             382.462
##########                DOCK_Rotatable_Bonds:                   7
##########                       Formal_Charge:          -0.0200002
##########                     HBond_Acceptors:                   7
##########                        HBond_Donors:                   2
##########                         Heavy_Atoms:                  28
##########                          Grid_Score:          -34.662792
##########                     Grid_vdw_energy:          -34.945286
##########                      Grid_es_energy:            0.282492
##########           Internal_energy_repulsive:           39.269161

@<TRIPOS>MOLECULE
ZINC000065993627
 54 56 1 0 0
SMALL
USER_CHARGES


@<TRIPOS>ATOM
      1 C1         -1.2700    1.1233   46.7621 C.3     1  ZINC000065993627   -0.1200
      2 C2         -0.3737    2.3091   47.0101 C.ar    1  ZINC000065993627   -0.0700
      3 C3          0.2141    2.9643   45.9465 C.ar    1  ZINC000065993627   -0.1800
      4 C4          1.0403    4.0573   46.1751 C.ar    1  ZINC000065993627    0.2000
      5 N5          1.6358    4.7217   45.0974 N.pl3   1  ZINC000065993627   -0.6400
      6 C6          3.0434    4.4769   44.7734 C.3     1  ZINC000065993627    0.1000
      7 C7          0.8517    5.6620   44.2929 C.3     1  ZINC000065993627    0.0900
      8 C8          1.2747    4.4906   47.4733 C.ar    1  ZINC000065993627   -0.1800
      9 C9          0.6865    3.8349   48.5368 C.ar    1  ZINC000065993627   -0.0800
     10 C10        -0.1436    2.7461   48.3078 C.ar    1  ZINC000065993627    0.1100
     11 N11        -0.7410    2.0808   49.3877 N.am    1  ZINC000065993627   -0.6800
     12 C12        -1.6372    2.7233   50.1626 C.2     1  ZINC000065993627    0.7000
     13 O13        -1.9276    3.8799   49.9253 O.2     1  ZINC000065993627   -0.5700
     14 N14        -2.2114    2.0837   51.2007 N.am    1  ZINC000065993627   -0.7400
     15 C15        -3.1869    2.7815   52.0420 C.3     1  ZINC000065993627    0.2100
     16 H16        -3.3714    3.7760   51.6359 H       1  ZINC000065993627    0.1000
     17 C17        -2.6372    2.9055   53.4645 C.3     1  ZINC000065993627   -0.1600
     18 C18        -4.4765    2.0022   52.0680 C.ar    1  ZINC000065993627   -0.1200
     19 C19        -4.4857    0.6710   51.6940 C.ar    1  ZINC000065993627   -0.0800
     20 C20        -5.6660   -0.0460   51.7167 C.ar    1  ZINC000065993627   -0.1500
     21 C21        -6.8441    0.5713   52.1157 C.ar    1  ZINC000065993627    0.1800
     22 N22        -8.0417   -0.1525   52.1402 N.am    1  ZINC000065993627   -0.5700
     23 C23        -8.1979   -1.5613   51.7475 C.3     1  ZINC000065993627    0.0600
     24 C24        -9.6974   -1.8395   51.9673 C.3     1  ZINC000065993627    0.0400
     25 O25       -10.2235   -0.5715   52.4556 O.3     1  ZINC000065993627   -0.3200
     26 C26        -9.2320    0.3235   52.5306 C.2     1  ZINC000065993627    0.6400
     27 O27        -9.3974    1.4660   52.9096 O.2     1  ZINC000065993627   -0.5000
     28 C28        -6.8315    1.9083   52.4907 C.ar    1  ZINC000065993627   -0.1500
     29 C29        -5.6469    2.6183   52.4712 C.ar    1  ZINC000065993627   -0.0800
     30 H30        -2.2974    1.4646   46.6350 H       1  ZINC000065993627    0.0700
     31 H31        -0.9452    0.6046   45.8602 H       1  ZINC000065993627    0.0700
     32 H32        -1.2159    0.4429   47.6120 H       1  ZINC000065993627    0.0600
     33 H33         0.0320    2.6268   44.9369 H       1  ZINC000065993627    0.1200
     34 H34         3.1152    3.6497   44.0673 H       1  ZINC000065993627    0.0500
     35 H35         3.4749    5.3733   44.3279 H       1  ZINC000065993627    0.0700
     36 H36         3.5875    4.2258   45.6839 H       1  ZINC000065993627    0.0700
     37 H37        -0.1379    5.7804   44.7341 H       1  ZINC000065993627    0.0800
     38 H38         1.3565    6.6277   44.2682 H       1  ZINC000065993627    0.0500
     39 H39         0.7533    5.2775   43.2777 H       1  ZINC000065993627    0.0500
     40 H40         1.9173    5.3402   47.6513 H       1  ZINC000065993627    0.1300
     41 H41         0.8688    4.1719   49.5466 H       1  ZINC000065993627    0.1500
     42 H42        -0.5094    1.1581   49.5769 H       1  ZINC000065993627    0.4000
     43 H43        -1.9789    1.1614   51.3908 H       1  ZINC000065993627    0.4000
     44 H44        -1.7045    3.4692   53.4457 H       1  ZINC000065993627    0.0700
     45 H45        -3.3629    3.4247   54.0905 H       1  ZINC000065993627    0.0700
     46 H46        -2.4526    1.9110   53.8707 H       1  ZINC000065993627    0.0600
     47 H47        -3.5692    0.1914   51.3834 H       1  ZINC000065993627    0.1300
     48 H48        -5.6727   -1.0856   51.4241 H       1  ZINC000065993627    0.1600
     49 H49        -7.9327   -1.6984   50.6992 H       1  ZINC000065993627    0.1000
     50 H50        -7.5916   -2.2057   52.3841 H       1  ZINC000065993627    0.1000
     51 H51       -10.1766   -2.1156   51.0280 H       1  ZINC000065993627    0.1100
     52 H52        -9.8355   -2.6229   52.7125 H       1  ZINC000065993627    0.1100
     53 H53        -7.7461    2.3913   52.8011 H       1  ZINC000065993627    0.1300
     54 H54        -5.6363    3.6580   52.7631 H       1  ZINC000065993627    0.1300
@<TRIPOS>BOND
     1     1     2    1
     2     1    30    1
     3     1    31    1
     4     1    32    1
     5     2    10   ar
     6     2     3   ar
     7     3     4   ar
     8     3    33    1
     9     4     5    1
    10     4     8   ar
    11     5     6    1
    12     5     7    1
    13     6    34    1
    14     6    35    1
    15     6    36    1
    16     7    37    1
    17     7    38    1
    18     7    39    1
    19     8     9   ar
    20     8    40    1
    21     9    10   ar
    22     9    41    1
    23    10    11    1
    24    11    12   am
    25    11    42    1
    26    12    13    2
    27    12    14   am
    28    14    15    1
    29    14    43    1
    30    15    16    1
    31    15    17    1
    32    15    18    1
    33    17    44    1
    34    17    45    1
    35    17    46    1
    36    18    29   ar
    37    18    19   ar
    38    19    20   ar
    39    19    47    1
    40    20    21   ar
    41    20    48    1
    42    21    22    1
    43    21    28   ar
    44    22    26   am
    45    22    23    1
    46    23    24    1
    47    23    49    1
    48    23    50    1
    49    24    25    1
    50    24    51    1
    51    24    52    1
    52    25    26    1
    53    26    27    2
    54    28    29   ar
    55    28    53    1
    56    29    54    1
@<TRIPOS>SUBSTRUCTURE
     1 ZINC000065993627        1 TEMP              0 ****  ****    0 ROOT


##########                                Name:    ZINC000410354665
##########                DOCK_Rotatable_Bonds:                   7
##########                         Heavy_Atoms:                  29
##########                    Molecular_Weight:             417.889
##########                DOCK_Rotatable_Bonds:                   7
##########                       Formal_Charge:        -3.72529e-08
##########                     HBond_Acceptors:                   7
##########                        HBond_Donors:                   1
##########                         Heavy_Atoms:                  29
##########                          Grid_Score:          -34.661304
##########                     Grid_vdw_energy:          -33.477753
##########                      Grid_es_energy:           -1.183552
##########           Internal_energy_repulsive:           14.306294

@<TRIPOS>MOLECULE
ZINC000410354665
 53 56 1 0 0
SMALL
USER_CHARGES


@<TRIPOS>ATOM
      1 C1         -6.6330   -0.9972   50.9809 C.3     1  ZINC000410354665    0.0200
      2 O2         -7.4815   -0.5520   52.0410 O.3     1  ZINC000410354665   -0.3000
      3 C3         -7.0810    0.5493   52.7312 C.ar    1  ZINC000410354665    0.0900
      4 C4         -5.9282    1.2142   52.3620 C.ar    1  ZINC000410354665   -0.1100
      5 C5         -5.5198    2.3460   53.0733 C.ar    1  ZINC000410354665   -0.1400
      6 C6         -4.2888    3.0608   52.6825 C.2     1  ZINC000410354665    0.5700
      7 O7         -4.2871    4.2746   52.6116 O.2     1  ZINC000410354665   -0.5300
      8 N8         -3.1669    2.3679   52.4043 N.am    1  ZINC000410354665   -0.7200
      9 C9         -1.9447    3.0774   52.0181 C.3     1  ZINC000410354665    0.1700
     10 C10        -1.2751    2.3442   50.8845 C.ar    1  ZINC000410354665   -0.1000
     11 C11         0.0089    1.8571   51.0409 C.ar    1  ZINC000410354665   -0.0900
     12 C12         0.6276    1.1856   50.0018 C.ar    1  ZINC000410354665   -0.0300
     13 Cl13        2.2406    0.5756   50.2015 Cl      1  ZINC000410354665   -0.0400
     14 C14        -0.0404    0.9988   48.7999 C.ar    1  ZINC000410354665    0.0700
     15 O15         0.5837    0.3428   47.7834 O.3     1  ZINC000410354665   -0.2900
     16 C16        -0.2492   -0.1497   46.7280 C.3     1  ZINC000410354665    0.0200
     17 C17        -1.2265    0.9637   46.3275 C.3     1  ZINC000410354665    0.0200
     18 O18        -2.0081    1.3089   47.4764 O.3     1  ZINC000410354665   -0.3000
     19 C19        -1.3328    1.4854   48.6449 C.ar    1  ZINC000410354665    0.0600
     20 C20        -1.9482    2.1549   49.6921 C.ar    1  ZINC000410354665   -0.0900
     21 C21        -6.2791    2.7994   54.1543 C.ar    1  ZINC000410354665   -0.0800
     22 C22        -7.4283    2.1309   54.5179 C.ar    1  ZINC000410354665   -0.1900
     23 C23        -7.8373    1.0104   53.8082 C.ar    1  ZINC000410354665    0.1400
     24 O24        -8.9702    0.3553   54.1703 O.3     1  ZINC000410354665   -0.2900
     25 C25       -10.0148    0.2798   53.1982 C.3     1  ZINC000410354665    0.0700
     26 C26       -11.3104   -0.2791   53.8370 C.3     1  ZINC000410354665   -0.1500
     27 C27       -12.4162    0.2634   52.8978 C.3     1  ZINC000410354665   -0.1200
     28 C28       -11.9354    1.6815   52.5269 C.3     1  ZINC000410354665   -0.1200
     29 C29       -10.4085    1.6919   52.7179 C.3     1  ZINC000410354665   -0.1200
     30 H30        -6.5340   -0.2059   50.2380 H       1  ZINC000410354665    0.0600
     31 H31        -5.6500   -1.2444   51.3817 H       1  ZINC000410354665    0.0600
     32 H32        -7.0679   -1.8812   50.5144 H       1  ZINC000410354665    0.1000
     33 H33        -5.3436    0.8604   51.5258 H       1  ZINC000410354665    0.1500
     34 H34        -3.1685    1.3995   52.4596 H       1  ZINC000410354665    0.4000
     35 H35        -2.1970    4.0883   51.6981 H       1  ZINC000410354665    0.0800
     36 H36        -1.2672    3.1246   52.8707 H       1  ZINC000410354665    0.0900
     37 H37         0.5302    2.0014   51.9757 H       1  ZINC000410354665    0.1500
     38 H38         0.3665   -0.4240   45.8715 H       1  ZINC000410354665    0.1300
     39 H39        -0.8059   -1.0201   47.0751 H       1  ZINC000410354665    0.0800
     40 H40        -0.6696    1.8364   45.9861 H       1  ZINC000410354665    0.0800
     41 H41        -1.8806    0.6096   45.5308 H       1  ZINC000410354665    0.1300
     42 H42        -2.9533    2.5323   49.5745 H       1  ZINC000410354665    0.1400
     43 H43        -5.9656    3.6737   54.7054 H       1  ZINC000410354665    0.1300
     44 H44        -8.0143    2.4825   55.3542 H       1  ZINC000410354665    0.1400
     45 H45        -9.7059   -0.3377   52.3548 H       1  ZINC000410354665    0.0800
     46 H46       -11.3028   -1.3691   53.8355 H       1  ZINC000410354665    0.0700
     47 H47       -11.4396    0.1059   54.8485 H       1  ZINC000410354665    0.0800
     48 H48       -12.4974   -0.3574   52.0056 H       1  ZINC000410354665    0.0700
     49 H49       -13.3718    0.3091   53.4202 H       1  ZINC000410354665    0.0700
     50 H50       -12.1833    1.9001   51.4882 H       1  ZINC000410354665    0.0700
     51 H51       -12.3989    2.4169   53.1846 H       1  ZINC000410354665    0.0700
     52 H52       -10.1311    2.4324   53.4682 H       1  ZINC000410354665    0.0800
     53 H53        -9.9154    1.9157   51.7720 H       1  ZINC000410354665    0.0700
@<TRIPOS>BOND
     1     1     2    1
     2     1    30    1
     3     1    31    1
     4     1    32    1
     5     2     3    1
     6     3    23   ar
     7     3     4   ar
     8     4     5   ar
     9     4    33    1
    10     5     6    1
    11     5    21   ar
    12     6     7    2
    13     6     8   am
    14     8     9    1
    15     8    34    1
    16     9    10    1
    17     9    35    1
    18     9    36    1
    19    10    20   ar
    20    10    11   ar
    21    11    12   ar
    22    11    37    1
    23    12    13    1
    24    12    14   ar
    25    14    19   ar
    26    14    15    1
    27    15    16    1
    28    16    17    1
    29    16    38    1
    30    16    39    1
    31    17    18    1
    32    17    40    1
    33    17    41    1
    34    18    19    1
    35    19    20   ar
    36    20    42    1
    37    21    22   ar
    38    21    43    1
    39    22    23   ar
    40    22    44    1
    41    23    24    1
    42    24    25    1
    43    25    29    1
    44    25    26    1
    45    25    45    1
    46    26    27    1
    47    26    46    1
    48    26    47    1
    49    27    28    1
    50    27    48    1
    51    27    49    1
    52    28    29    1
    53    28    50    1
    54    28    51    1
    55    29    52    1
    56    29    53    1
@<TRIPOS>SUBSTRUCTURE
     1 ZINC000410354665        1 TEMP              0 ****  ****    0 ROOT


##########                                Name:    ZINC000432253027
##########                DOCK_Rotatable_Bonds:                   8
##########                         Heavy_Atoms:                  26
##########                    Molecular_Weight:             401.436
##########                DOCK_Rotatable_Bonds:                   8
##########                       Formal_Charge:         1.19209e-07
##########                     HBond_Acceptors:                  11
##########                        HBond_Donors:                   0
##########                         Heavy_Atoms:                  26
##########                          Grid_Score:          -34.621265
##########                     Grid_vdw_energy:          -33.676311
##########                      Grid_es_energy:           -0.944955
##########           Internal_energy_repulsive:            4.554774

@<TRIPOS>MOLECULE
ZINC000432253027
 40 42 1 0 0
SMALL
USER_CHARGES


@<TRIPOS>ATOM
      1 C1         -1.1542    1.9567   46.2994 C.3     1  ZINC000432253027    0.0300
      2 O2         -1.2512    1.2141   47.5165 O.3     1  ZINC000432253027   -0.3100
      3 C3         -0.0947    0.9762   48.1876 C.ar    1  ZINC000432253027    0.1500
      4 C4          0.8597    0.1286   47.6494 C.ar    1  ZINC000432253027   -0.2100
      5 C5          2.0363   -0.1132   48.3335 C.ar    1  ZINC000432253027   -0.0600
      6 C6          2.2697    0.4882   49.5577 C.ar    1  ZINC000432253027   -0.1600
      7 C7          1.3291    1.3351   50.1070 C.ar    1  ZINC000432253027   -0.0300
      8 C8          0.1404    1.5914   49.4236 C.ar    1  ZINC000432253027   -0.0600
      9 C9         -0.8711    2.4974   50.0065 C.2     1  ZINC000432253027    0.1200
     10 N10        -1.8381    2.1387   50.8021 N.2     1  ZINC000432253027   -0.4600
     11 C11        -2.6452    3.0852   51.2247 C.2     1  ZINC000432253027    0.0800
     12 C12        -3.8006    2.7980   52.1486 C.3     1  ZINC000432253027   -0.0200
     13 S13        -4.6057    1.2517   51.6477 S.3     1  ZINC000432253027   -0.1700
     14 C14        -6.2239    1.3518   52.4614 C.3     1  ZINC000432253027   -0.0300
     15 C15        -6.9537    0.0444   52.2908 C.2     1  ZINC000432253027    0.2100
     16 N16        -6.4202   -1.1183   52.0054 N.2     1  ZINC000432253027   -0.2700
     17 N17        -7.3692   -1.9875   51.9448 N.2     1  ZINC000432253027   -0.0500
     18 N18        -8.4944   -1.4095   52.1841 N.2     1  ZINC000432253027   -0.0700
     19 N19        -8.2794   -0.1570   52.4076 N.pl3   1  ZINC000432253027   -0.3100
     20 C20        -9.2894    0.8569   52.7201 C.3     1  ZINC000432253027    0.0700
     21 C21        -9.6297    0.7955   54.2105 C.3     1  ZINC000432253027    0.4300
     22 F22       -10.0208   -0.5051   54.5463 F       1  ZINC000432253027   -0.1500
     23 F23        -8.5041    1.1524   54.9609 F       1  ZINC000432253027   -0.1700
     24 F24       -10.6752    1.6829   54.4872 F       1  ZINC000432253027   -0.1700
     25 C25        -2.3778    4.3187   50.7848 C.2     1  ZINC000432253027   -0.2500
     26 S26        -0.9584    4.2371   49.7432 S.3     1  ZINC000432253027    0.1600
     27 H27        -2.1473    2.0755   45.8661 H       1  ZINC000432253027    0.1000
     28 H28        -0.7281    2.9386   46.5059 H       1  ZINC000432253027    0.0600
     29 H29        -0.5132    1.4226   45.5981 H       1  ZINC000432253027    0.0600
     30 H30         0.6840   -0.3442   46.6945 H       1  ZINC000432253027    0.1400
     31 H31         2.7773   -0.7754   47.9105 H       1  ZINC000432253027    0.1300
     32 H32         3.1917    0.2938   50.0854 H       1  ZINC000432253027    0.1300
     33 H33         1.5147    1.8023   51.0629 H       1  ZINC000432253027    0.1400
     34 H34        -3.4334    2.7021   53.1705 H       1  ZINC000432253027    0.1000
     35 H35        -4.5196    3.6156   52.0963 H       1  ZINC000432253027    0.1100
     36 H36        -6.0847    1.5544   53.5233 H       1  ZINC000432253027    0.1100
     37 H37        -6.8075    2.1551   52.0117 H       1  ZINC000432253027    0.1300
     38 H38        -8.8995    1.8453   52.4769 H       1  ZINC000432253027    0.1500
     39 H39       -10.1886    0.6668   52.1340 H       1  ZINC000432253027    0.1600
     40 H40        -2.9336    5.2120   51.0286 H       1  ZINC000432253027    0.1800
@<TRIPOS>BOND
     1     1     2    1
     2     1    27    1
     3     1    28    1
     4     1    29    1
     5     2     3    1
     6     3     8   ar
     7     3     4   ar
     8     4     5   ar
     9     4    30    1
    10     5     6   ar
    11     5    31    1
    12     6     7   ar
    13     6    32    1
    14     7     8   ar
    15     7    33    1
    16     8     9    1
    17     9    26    1
    18     9    10    2
    19    10    11    1
    20    11    12    1
    21    11    25    2
    22    12    13    1
    23    12    34    1
    24    12    35    1
    25    13    14    1
    26    14    15    1
    27    14    36    1
    28    14    37    1
    29    15    19    1
    30    15    16    2
    31    16    17    1
    32    17    18    2
    33    18    19    1
    34    19    20    1
    35    20    21    1
    36    20    38    1
    37    20    39    1
    38    21    22    1
    39    21    23    1
    40    21    24    1
    41    25    26    1
    42    25    40    1
@<TRIPOS>SUBSTRUCTURE
     1 ZINC000432253027        1 TEMP              0 ****  ****    0 ROOT


##########                                Name:    ZINC000744839011
##########                DOCK_Rotatable_Bonds:                  10
##########                         Heavy_Atoms:                  24
##########                    Molecular_Weight:              378.83
##########                DOCK_Rotatable_Bonds:                  10
##########                       Formal_Charge:           0.0300002
##########                     HBond_Acceptors:                   9
##########                        HBond_Donors:                   0
##########                         Heavy_Atoms:                  24
##########                          Grid_Score:          -34.620502
##########                     Grid_vdw_energy:          -32.835430
##########                      Grid_es_energy:           -1.785073
##########           Internal_energy_repulsive:            9.058084

@<TRIPOS>MOLECULE
ZINC000744839011
 43 43 1 0 0
SMALL
USER_CHARGES


@<TRIPOS>ATOM
      1 C1         -3.3597    3.4263   54.5149 C.3     1  ZINC000744839011    0.0400
      2 O2         -3.6452    3.6285   53.1056 O.3     1  ZINC000744839011   -0.3600
      3 C3         -3.8420    2.5256   52.3569 C.2     1  ZINC000744839011    0.5100
      4 O4         -2.9159    2.0358   51.7415 O.2     1  ZINC000744839011   -0.5000
      5 C5         -5.1815    1.9132   52.2844 C.ar    1  ZINC000744839011   -0.1600
      6 C6         -6.3063    2.6382   52.6875 C.ar    1  ZINC000744839011   -0.0100
      7 C7         -7.5557    2.0631   52.6179 C.ar    1  ZINC000744839011   -0.2100
      8 C8         -7.6997    0.7636   52.1476 C.ar    1  ZINC000744839011    0.1800
      9 O9         -8.9330    0.2008   52.0807 O.3     1  ZINC000744839011   -0.2900
     10 C10        -9.3045   -0.6760   53.1462 C.3     1  ZINC000744839011    0.0500
     11 C11       -10.7481   -1.1411   52.9440 C.3     1  ZINC000744839011    0.0600
     12 O12       -10.9395   -2.4236   53.5974 O.3     1  ZINC000744839011   -0.3400
     13 C13       -11.9160   -3.2111   53.1199 C.2     1  ZINC000744839011    0.5000
     14 O14       -11.6375   -4.2086   52.4976 O.2     1  ZINC000744839011   -0.4900
     15 C15       -13.3595   -2.8512   53.3601 C.3     1  ZINC000744839011   -0.6400
     16 S16       -13.9560   -3.7036   54.8460 S.o2    1  ZINC000744839011    2.4400
     17 O17       -15.3049   -3.3210   55.0768 O.2     1  ZINC000744839011   -0.9100
     18 O18       -13.6354   -5.0836   54.7358 O.2     1  ZINC000744839011   -0.9100
     19 C19       -12.9179   -2.9709   56.1407 C.3     1  ZINC000744839011   -0.5700
     20 C20       -13.2935   -1.4989   56.3233 C.3     1  ZINC000744839011   -0.1500
     21 C21       -13.1382   -3.7204   57.4562 C.3     1  ZINC000744839011   -0.1500
     22 C22        -6.5831    0.0380   51.7446 C.ar    1  ZINC000744839011   -0.0800
     23 Cl23       -6.7695   -1.5851   51.1574 Cl      1  ZINC000744839011   -0.0400
     24 C24        -5.3305    0.6076   51.8065 C.ar    1  ZINC000744839011   -0.0100
     25 H25        -4.1918    2.8997   54.9823 H       1  ZINC000744839011    0.0700
     26 H26        -2.4503    2.8346   54.6202 H       1  ZINC000744839011    0.0700
     27 H27        -3.2227    4.3926   55.0002 H       1  ZINC000744839011    0.1100
     28 H28        -6.1957    3.6482   53.0537 H       1  ZINC000744839011    0.1500
     29 H29        -8.4251    2.6230   52.9298 H       1  ZINC000744839011    0.1500
     30 H30        -8.6416   -1.5412   53.1528 H       1  ZINC000744839011    0.0900
     31 H31        -9.2226   -0.1483   54.0964 H       1  ZINC000744839011    0.1000
     32 H32       -11.4298   -0.4081   53.3755 H       1  ZINC000744839011    0.1100
     33 H33       -10.9511   -1.2427   51.8779 H       1  ZINC000744839011    0.0900
     34 H34       -13.4469   -1.7737   53.4995 H       1  ZINC000744839011    0.1700
     35 H35       -13.9576   -3.1561   52.5015 H       1  ZINC000744839011    0.1700
     36 H36       -11.8696   -3.0451   55.8513 H       1  ZINC000744839011    0.1400
     37 H37       -12.6697   -1.0586   57.1011 H       1  ZINC000744839011    0.0900
     38 H38       -13.1365   -0.9649   55.3860 H       1  ZINC000744839011    0.0700
     39 H39       -14.3418   -1.4246   56.6126 H       1  ZINC000744839011    0.0800
     40 H40       -12.8707   -4.7689   57.3261 H       1  ZINC000744839011    0.0800
     41 H41       -12.5145   -3.2800   58.2341 H       1  ZINC000744839011    0.0900
     42 H42       -14.1864   -3.6460   57.7455 H       1  ZINC000744839011    0.0800
     43 H43        -4.4639    0.0440   51.4937 H       1  ZINC000744839011    0.1600
@<TRIPOS>BOND
     1     1     2    1
     2     1    25    1
     3     1    26    1
     4     1    27    1
     5     2     3    1
     6     3     4    2
     7     3     5    1
     8     5    24   ar
     9     5     6   ar
    10     6     7   ar
    11     6    28    1
    12     7     8   ar
    13     7    29    1
    14     8     9    1
    15     8    22   ar
    16     9    10    1
    17    10    11    1
    18    10    30    1
    19    10    31    1
    20    11    12    1
    21    11    32    1
    22    11    33    1
    23    12    13    1
    24    13    14    2
    25    13    15    1
    26    15    16    1
    27    15    34    1
    28    15    35    1
    29    16    17    2
    30    16    18    2
    31    16    19    1
    32    19    20    1
    33    19    21    1
    34    19    36    1
    35    20    37    1
    36    20    38    1
    37    20    39    1
    38    21    40    1
    39    21    41    1
    40    21    42    1
    41    22    23    1
    42    22    24   ar
    43    24    43    1
@<TRIPOS>SUBSTRUCTURE
     1 ZINC000744839011        1 TEMP              0 ****  ****    0 ROOT


##########                                Name:    ZINC000772422035
##########                DOCK_Rotatable_Bonds:                  10
##########                         Heavy_Atoms:                  25
##########                    Molecular_Weight:             348.399
##########                DOCK_Rotatable_Bonds:                  10
##########                       Formal_Charge:          0.00999987
##########                     HBond_Acceptors:                   7
##########                        HBond_Donors:                   0
##########                         Heavy_Atoms:                  25
##########                          Grid_Score:          -34.583649
##########                     Grid_vdw_energy:          -34.834724
##########                      Grid_es_energy:            0.251077
##########           Internal_energy_repulsive:           16.029339

@<TRIPOS>MOLECULE
ZINC000772422035
 49 50 1 0 0
SMALL
USER_CHARGES


@<TRIPOS>ATOM
      1 C1         -8.9272   -1.5619   52.2127 C.3     1  ZINC000772422035    0.0300
      2 O2         -7.6186   -2.1358   52.1974 O.3     1  ZINC000772422035   -0.3900
      3 C3         -6.6785   -1.4184   51.3953 C.3     1  ZINC000772422035    0.0600
      4 C4         -6.4259   -0.0420   52.0139 C.3     1  ZINC000772422035    0.0700
      5 O5         -5.1812    0.4732   51.5374 O.3     1  ZINC000772422035   -0.3000
      6 C6         -4.7193    1.6068   52.1225 C.ar    1  ZINC000772422035    0.3300
      7 C7         -3.3729    1.9326   52.0232 C.ar    1  ZINC000772422035   -0.1700
      8 C8         -2.9144    3.0920   52.6246 C.ar    1  ZINC000772422035   -0.0200
      9 C9         -1.4610    3.4814   52.5397 C.3     1  ZINC000772422035    0.1100
     10 O10        -0.8597    2.8560   51.3754 O.3     1  ZINC000772422035   -0.3500
     11 C11        -1.2539    3.3020   50.1722 C.2     1  ZINC000772422035    0.4700
     12 O12        -1.8267    4.3617   50.0788 O.2     1  ZINC000772422035   -0.5000
     13 C13        -0.9819    2.4810   48.9382 C.3     1  ZINC000772422035   -0.1100
     14 C14         0.5180    2.4957   48.6362 C.3     1  ZINC000772422035    0.0000
     15 H15         1.0723    2.6743   49.5577 H       1  ZINC000772422035    0.1000
     16 C16         0.8254    3.6086   47.6323 C.3     1  ZINC000772422035   -0.1500
     17 C17         0.9262    1.1670   48.0539 C.2     1  ZINC000772422035   -0.2000
     18 C18         2.0346    0.4398   48.3319 C.2     1  ZINC000772422035   -0.0200
     19 C19         3.1302    0.7999   49.3018 C.3     1  ZINC000772422035   -0.0800
     20 O20         1.9645   -0.6634   47.5737 O.3     1  ZINC000772422035    0.1000
     21 N21         0.9646   -0.6729   46.8940 N.2     1  ZINC000772422035   -0.3600
     22 C22         0.2378    0.3881   47.0957 C.2     1  ZINC000772422035    0.0300
     23 C23        -1.0727    0.7243   46.4320 C.3     1  ZINC000772422035   -0.0800
     24 C24        -3.8237    3.8877   53.3073 C.ar    1  ZINC000772422035   -0.1900
     25 C25        -5.1484    3.5021   53.3656 C.ar    1  ZINC000772422035    0.1400
     26 N26        -5.5566    2.3939   52.7775 N.ar    1  ZINC000772422035   -0.5300
     27 H27        -9.5810   -2.1646   52.8431 H       1  ZINC000772422035    0.0900
     28 H28        -8.8745   -0.5477   52.6086 H       1  ZINC000772422035    0.0400
     29 H29        -9.3243   -1.5356   51.1979 H       1  ZINC000772422035    0.0400
     30 H30        -5.7416   -1.9736   51.3494 H       1  ZINC000772422035    0.0600
     31 H31        -7.0782   -1.2965   50.3885 H       1  ZINC000772422035    0.0700
     32 H32        -7.2315    0.6362   51.7323 H       1  ZINC000772422035    0.0800
     33 H33        -6.3901   -0.1327   53.0995 H       1  ZINC000772422035    0.0800
     34 H34        -2.6927    1.2898   51.4842 H       1  ZINC000772422035    0.1400
     35 H35        -1.3797    4.5648   52.4528 H       1  ZINC000772422035    0.0900
     36 H36        -0.9427    3.1490   53.4391 H       1  ZINC000772422035    0.0900
     37 H37        -1.3089    1.4548   49.1051 H       1  ZINC000772422035    0.1100
     38 H38        -1.5265    2.9031   48.0936 H       1  ZINC000772422035    0.1100
     39 H39         0.1778    3.5018   46.7620 H       1  ZINC000772422035    0.0600
     40 H40         0.6496    4.5777   48.0991 H       1  ZINC000772422035    0.0800
     41 H41         1.8675    3.5390   47.3205 H       1  ZINC000772422035    0.0600
     42 H42         2.8455    0.4834   50.3053 H       1  ZINC000772422035    0.0900
     43 H43         4.0528    0.2978   49.0106 H       1  ZINC000772422035    0.0900
     44 H44         3.2848    1.8788   49.2912 H       1  ZINC000772422035    0.0900
     45 H45        -1.8959    0.3859   47.0611 H       1  ZINC000772422035    0.0800
     46 H46        -1.1426    1.8029   46.2912 H       1  ZINC000772422035    0.0800
     47 H47        -1.1276    0.2272   45.4634 H       1  ZINC000772422035    0.0800
     48 H48        -3.4987    4.7986   53.7880 H       1  ZINC000772422035    0.1400
     49 H49        -5.8600    4.1179   53.8955 H       1  ZINC000772422035    0.1700
@<TRIPOS>BOND
     1     1     2    1
     2     1    27    1
     3     1    28    1
     4     1    29    1
     5     2     3    1
     6     3     4    1
     7     3    30    1
     8     3    31    1
     9     4     5    1
    10     4    32    1
    11     4    33    1
    12     5     6    1
    13     6    26   ar
    14     6     7   ar
    15     7     8   ar
    16     7    34    1
    17     8     9    1
    18     8    24   ar
    19     9    10    1
    20     9    35    1
    21     9    36    1
    22    10    11    1
    23    11    12    2
    24    11    13    1
    25    13    14    1
    26    13    37    1
    27    13    38    1
    28    14    15    1
    29    14    16    1
    30    14    17    1
    31    16    39    1
    32    16    40    1
    33    16    41    1
    34    17    22    1
    35    17    18    2
    36    18    19    1
    37    18    20    1
    38    19    42    1
    39    19    43    1
    40    19    44    1
    41    20    21    1
    42    21    22    2
    43    22    23    1
    44    23    45    1
    45    23    46    1
    46    23    47    1
    47    24    25   ar
    48    24    48    1
    49    25    26   ar
    50    25    49    1
@<TRIPOS>SUBSTRUCTURE
     1 ZINC000772422035        1 TEMP              0 ****  ****    0 ROOT


##########                                Name:    ZINC001109082135
##########                DOCK_Rotatable_Bonds:                   9
##########                         Heavy_Atoms:                  27
##########                    Molecular_Weight:             373.455
##########                DOCK_Rotatable_Bonds:                   9
##########                       Formal_Charge:          -0.0100003
##########                     HBond_Acceptors:                   8
##########                        HBond_Donors:                   3
##########                         Heavy_Atoms:                  27
##########                          Grid_Score:          -34.578568
##########                     Grid_vdw_energy:          -32.304790
##########                      Grid_es_energy:           -2.273777
##########           Internal_energy_repulsive:           19.640514

@<TRIPOS>MOLECULE
ZINC001109082135
 54 57 1 0 0
SMALL
USER_CHARGES


@<TRIPOS>ATOM
      1 C1         -6.6105    0.5419   52.0468 C.3     1  ZINC001109082135   -0.1400
      2 C2         -7.3617    1.8406   52.3472 C.3     1  ZINC001109082135   -0.1400
      3 C3         -7.2965    2.1283   53.8250 C.2     1  ZINC001109082135    0.5100
      4 O4         -6.3642    2.7567   54.2799 O.2     1  ZINC001109082135   -0.5400
      5 N5         -8.2742    1.6874   54.6412 N.am    1  ZINC001109082135   -0.7200
      6 C6         -8.2100    1.9656   56.0781 C.3     1  ZINC001109082135    0.1000
      7 C7         -8.9454    0.8876   56.8318 C.2     1  ZINC001109082135    0.5100
      8 O8         -9.8092    0.2414   56.2775 O.2     1  ZINC001109082135   -0.5300
      9 N9         -8.6430    0.6415   58.1220 N.am    1  ZINC001109082135   -0.7100
     10 C10        -9.3567   -0.4078   58.8542 C.3     1  ZINC001109082135    0.1100
     11 H11        -9.4481   -1.3059   58.2434 H       1  ZINC001109082135    0.0900
     12 C12        -8.6382   -0.7265   60.1882 C.3     1  ZINC001109082135   -0.1600
     13 C13        -9.7032   -0.3719   61.2695 C.3     1  ZINC001109082135    0.0600
     14 H14        -9.5598   -0.8409   62.2429 H       1  ZINC001109082135    0.1300
     15 C15        -9.7697    1.1851   61.2758 C.3     1  ZINC001109082135   -0.1200
     16 C16       -10.4813    1.5225   59.9427 C.3     1  ZINC001109082135   -0.1100
     17 C17       -10.7614    0.0954   59.3039 C.3     1  ZINC001109082135    0.0400
     18 H18       -11.5527    0.0622   58.5549 H       1  ZINC001109082135    0.1200
     19 N19       -10.9764   -0.7301   60.5482 N.3     1  ZINC001109082135   -0.4800
     20 C20       -11.0303   -2.1624   60.2267 C.3     1  ZINC001109082135    0.0800
     21 C21       -12.4164   -2.5195   59.7549 C.2     1  ZINC001109082135    0.2000
     22 C22       -13.4759   -2.4058   60.6032 C.2     1  ZINC001109082135   -0.2900
     23 C23       -14.7594   -2.7476   60.1296 C.2     1  ZINC001109082135    0.5200
     24 O24       -15.7353   -2.6599   60.8561 O.2     1  ZINC001109082135   -0.5400
     25 N25       -14.8852   -3.1735   58.8545 N.am    1  ZINC001109082135   -0.6300
     26 C26       -13.7964   -3.2639   58.0656 C.2     1  ZINC001109082135    0.4300
     27 C27       -13.9540   -3.7412   56.6449 C.3     1  ZINC001109082135   -0.1400
     28 C28       -12.8520   -4.6360   56.0740 C.3     1  ZINC001109082135   -0.1400
     29 C29       -14.2164   -5.2324   56.4257 C.3     1  ZINC001109082135   -0.1400
     30 N30       -12.6082   -2.9424   58.5030 N.2     1  ZINC001109082135   -0.5300
     31 H31        -7.0697   -0.2791   52.5974 H       1  ZINC001109082135    0.0600
     32 H32        -6.6576    0.3339   50.9780 H       1  ZINC001109082135    0.0600
     33 H33        -5.5691    0.6459   52.3512 H       1  ZINC001109082135    0.0600
     34 H34        -6.9024    2.6616   51.7965 H       1  ZINC001109082135    0.1000
     35 H35        -8.4031    1.7367   52.0429 H       1  ZINC001109082135    0.1000
     36 H36        -9.0205    1.1859   54.2771 H       1  ZINC001109082135    0.4100
     37 H37        -7.1682    1.9865   56.3979 H       1  ZINC001109082135    0.1000
     38 H38        -8.6722    2.9315   56.2822 H       1  ZINC001109082135    0.1000
     39 H39        -7.9531    1.1590   58.5657 H       1  ZINC001109082135    0.4000
     40 H40        -8.3760   -1.7833   60.2399 H       1  ZINC001109082135    0.0800
     41 H41        -7.7511   -0.1039   60.3046 H       1  ZINC001109082135    0.0800
     42 H42       -10.3551    1.5407   62.1238 H       1  ZINC001109082135    0.0700
     43 H43        -8.7670    1.6120   61.2943 H       1  ZINC001109082135    0.0700
     44 H44       -11.4191    2.0453   60.1298 H       1  ZINC001109082135    0.0700
     45 H45        -9.8311    2.1166   59.3003 H       1  ZINC001109082135    0.0700
     46 H46       -10.3100   -2.3856   59.4397 H       1  ZINC001109082135    0.1000
     47 H47       -10.7884   -2.7438   61.1163 H       1  ZINC001109082135    0.0700
     48 H48       -13.3360   -2.0615   61.6172 H       1  ZINC001109082135    0.1600
     49 H49       -15.7581   -3.4146   58.5068 H       1  ZINC001109082135    0.4200
     50 H50       -14.4364   -3.0398   55.9641 H       1  ZINC001109082135    0.1300
     51 H51       -12.6092   -4.5235   55.0173 H       1  ZINC001109082135    0.1100
     52 H52       -12.0132   -4.8795   56.7260 H       1  ZINC001109082135    0.1100
     53 H53       -14.2752   -5.8684   57.3090 H       1  ZINC001109082135    0.1100
     54 H54       -14.8712   -5.5122   55.6004 H       1  ZINC001109082135    0.1100
@<TRIPOS>BOND
     1     1     2    1
     2     1    31    1
     3     1    32    1
     4     1    33    1
     5     2     3    1
     6     2    34    1
     7     2    35    1
     8     3     4    2
     9     3     5   am
    10     5     6    1
    11     5    36    1
    12     6     7    1
    13     6    37    1
    14     6    38    1
    15     7     8    2
    16     7     9   am
    17     9    10    1
    18     9    39    1
    19    10    11    1
    20    10    17    1
    21    10    12    1
    22    12    13    1
    23    12    40    1
    24    12    41    1
    25    13    14    1
    26    13    19    1
    27    13    15    1
    28    15    16    1
    29    15    42    1
    30    15    43    1
    31    16    17    1
    32    16    44    1
    33    16    45    1
    34    17    18    1
    35    17    19    1
    36    19    20    1
    37    20    21    1
    38    20    46    1
    39    20    47    1
    40    21    30    1
    41    21    22    2
    42    22    23    1
    43    22    48    1
    44    23    24    2
    45    23    25   am
    46    25    26    1
    47    25    49    1
    48    26    27    1
    49    26    30    2
    50    27    29    1
    51    27    28    1
    52    27    50    1
    53    28    29    1
    54    28    51    1
    55    28    52    1
    56    29    53    1
    57    29    54    1
@<TRIPOS>SUBSTRUCTURE
     1 ZINC001109082135        1 TEMP              0 ****  ****    0 ROOT


##########                                Name:    ZINC000508782983
##########                DOCK_Rotatable_Bonds:                   9
##########                         Heavy_Atoms:                  27
##########                    Molecular_Weight:             373.458
##########                DOCK_Rotatable_Bonds:                   9
##########                       Formal_Charge:          -0.0200006
##########                     HBond_Acceptors:                   9
##########                        HBond_Donors:                   2
##########                         Heavy_Atoms:                  27
##########                          Grid_Score:          -34.565296
##########                     Grid_vdw_energy:          -34.403454
##########                      Grid_es_energy:           -0.161844
##########           Internal_energy_repulsive:           18.676701

@<TRIPOS>MOLECULE
ZINC000508782983
 54 56 1 0 0
SMALL
USER_CHARGES


@<TRIPOS>ATOM
      1 C1        -17.5073   -1.3698   61.5466 C.3     1  ZINC000508782983   -0.1500
      2 C2        -16.1381   -1.3336   60.8650 C.3     1  ZINC000508782983   -0.1100
      3 C3        -15.4990    0.0403   61.0771 C.3     1  ZINC000508782983   -0.1500
      4 C4        -15.2385   -2.4133   61.4698 C.3     1  ZINC000508782983    0.1000
      5 N5        -13.9195   -2.3625   60.8342 N.pl3   1  ZINC000508782983   -0.4400
      6 C6        -12.7313   -2.0763   61.4506 C.2     1  ZINC000508782983   -0.0400
      7 C7        -11.7760   -2.1388   60.5034 C.2     1  ZINC000508782983   -0.0300
      8 N8        -12.3649   -2.4545   59.3404 N.2     1  ZINC000508782983   -0.4700
      9 C9        -13.6481   -2.5949   59.5320 C.2     1  ZINC000508782983    0.1700
     10 C10       -14.6606   -2.9487   58.4732 C.3     1  ZINC000508782983    0.2100
     11 N11       -13.9802   -3.5739   57.3364 N.am    1  ZINC000508782983   -0.6900
     12 C12       -13.8062   -2.8832   56.1922 C.2     1  ZINC000508782983    0.5100
     13 O13       -14.2145   -1.7440   56.1032 O.2     1  ZINC000508782983   -0.5100
     14 C14       -13.1105   -3.5204   55.0331 C.2     1  ZINC000508782983    0.5100
     15 O15       -13.6060   -4.4810   54.4814 O.2     1  ZINC000508782983   -0.5200
     16 N16       -11.9328   -3.0282   54.6005 N.am    1  ZINC000508782983   -0.5800
     17 C17       -11.2345   -3.6363   53.4577 C.3     1  ZINC000508782983    0.0800
     18 C18       -10.8839   -2.5302   52.4568 C.3     1  ZINC000508782983    0.0400
     19 N19       -10.1391   -1.4683   53.1464 N.3     1  ZINC000508782983   -0.5400
     20 C20        -9.6357   -0.4727   52.1907 C.3     1  ZINC000508782983    0.1400
     21 C21        -8.1489   -0.6487   52.0185 C.2     1  ZINC000508782983    0.2100
     22 N22        -7.5618   -1.6897   51.4944 N.2     1  ZINC000508782983   -0.4900
     23 C23        -6.2341   -1.4998   51.5031 C.2     1  ZINC000508782983   -0.0300
     24 C24        -5.9891   -0.2954   52.0534 C.2     1  ZINC000508782983   -0.0500
     25 N25        -7.2037    0.2473   52.3757 N.pl3   1  ZINC000508782983   -0.5600
     26 C26       -10.9583   -0.8322   54.1868 C.3     1  ZINC000508782983    0.0400
     27 C27       -11.3148   -1.8649   55.2548 C.3     1  ZINC000508782983    0.1100
     28 H28       -18.1482   -0.6005   61.1157 H       1  ZINC000508782983    0.0700
     29 H29       -17.9626   -2.3486   61.3955 H       1  ZINC000508782983    0.0600
     30 H30       -17.3867   -1.1861   62.6142 H       1  ZINC000508782983    0.0600
     31 H31       -16.2586   -1.5172   59.7973 H       1  ZINC000508782983    0.0800
     32 H32       -15.4489    0.2569   62.1442 H       1  ZINC000508782983    0.0600
     33 H33       -14.4925    0.0415   60.6585 H       1  ZINC000508782983    0.0600
     34 H34       -16.1002    0.8014   60.5797 H       1  ZINC000508782983    0.0600
     35 H35       -15.1326   -2.2400   62.5407 H       1  ZINC000508782983    0.1000
     36 H36       -15.6848   -3.3935   61.3027 H       1  ZINC000508782983    0.0900
     37 H37       -12.5876   -1.8446   62.4957 H       1  ZINC000508782983    0.1800
     38 H38       -10.7208   -1.9652   60.6539 H       1  ZINC000508782983    0.1700
     39 H39       -15.3908   -3.6442   58.8868 H       1  ZINC000508782983    0.0900
     40 H40       -15.1688   -2.0439   58.1396 H       1  ZINC000508782983    0.1100
     41 H41       -13.6548   -4.4850   57.4071 H       1  ZINC000508782983    0.4200
     42 H42       -10.3210   -4.1210   53.8026 H       1  ZINC000508782983    0.0800
     43 H43       -11.8837   -4.3701   52.9801 H       1  ZINC000508782983    0.1400
     44 H44       -10.2701   -2.9446   51.6571 H       1  ZINC000508782983    0.0900
     45 H45       -11.8004   -2.1171   52.0356 H       1  ZINC000508782983    0.0400
     46 H46       -10.1313   -0.6085   51.2295 H       1  ZINC000508782983    0.0900
     47 H47        -9.8417    0.5292   52.5674 H       1  ZINC000508782983    0.0700
     48 H48        -5.4917   -2.1916   51.1334 H       1  ZINC000508782983    0.1700
     49 H49        -5.0206    0.1572   52.2071 H       1  ZINC000508782983    0.1800
     50 H50        -7.3566    1.1115   52.7887 H       1  ZINC000508782983    0.4200
     51 H51       -10.3983   -0.0151   54.6416 H       1  ZINC000508782983    0.1100
     52 H52       -11.8737   -0.4427   53.7414 H       1  ZINC000508782983    0.0400
     53 H53       -12.0151   -1.4284   55.9668 H       1  ZINC000508782983    0.1000
     54 H54       -10.4103   -2.1820   55.7740 H       1  ZINC000508782983    0.0800
@<TRIPOS>BOND
     1     1     2    1
     2     1    28    1
     3     1    29    1
     4     1    30    1
     5     2     3    1
     6     2     4    1
     7     2    31    1
     8     3    32    1
     9     3    33    1
    10     3    34    1
    11     4     5    1
    12     4    35    1
    13     4    36    1
    14     5     9    1
    15     5     6    1
    16     6     7    2
    17     6    37    1
    18     7     8    1
    19     7    38    1
    20     8     9    2
    21     9    10    1
    22    10    11    1
    23    10    39    1
    24    10    40    1
    25    11    12   am
    26    11    41    1
    27    12    13    2
    28    12    14    1
    29    14    15    2
    30    14    16   am
    31    16    27    1
    32    16    17    1
    33    17    18    1
    34    17    42    1
    35    17    43    1
    36    18    19    1
    37    18    44    1
    38    18    45    1
    39    19    20    1
    40    19    26    1
    41    20    21    1
    42    20    46    1
    43    20    47    1
    44    21    25    1
    45    21    22    2
    46    22    23    1
    47    23    24    2
    48    23    48    1
    49    24    25    1
    50    24    49    1
    51    25    50    1
    52    26    27    1
    53    26    51    1
    54    26    52    1
    55    27    53    1
    56    27    54    1
@<TRIPOS>SUBSTRUCTURE
     1 ZINC000508782983        1 TEMP              0 ****  ****    0 ROOT


##########                                Name:    ZINC001411334959
##########                DOCK_Rotatable_Bonds:                   9
##########                         Heavy_Atoms:                  24
##########                    Molecular_Weight:              339.37
##########                DOCK_Rotatable_Bonds:                   9
##########                       Formal_Charge:           0.0199995
##########                     HBond_Acceptors:                   9
##########                        HBond_Donors:                   3
##########                         Heavy_Atoms:                  24
##########                          Grid_Score:          -34.563675
##########                     Grid_vdw_energy:          -31.755714
##########                      Grid_es_energy:           -2.807961
##########           Internal_energy_repulsive:           10.903460

@<TRIPOS>MOLECULE
ZINC001411334959
 46 48 1 0 0
SMALL
USER_CHARGES


@<TRIPOS>ATOM
      1 O1         -5.1876    0.6960   51.8426 O.2     1  ZINC001411334959   -0.5400
      2 C2         -5.6532    1.7986   52.0389 C.2     1  ZINC001411334959    0.5200
      3 C3         -7.1406    2.0176   51.9365 C.3     1  ZINC001411334959   -0.1400
      4 C4         -7.8729    0.9087   52.6950 C.3     1  ZINC001411334959   -0.0100
      5 C5         -7.9505    1.2667   54.1568 C.2     1  ZINC001411334959    0.0100
      6 N6         -7.0501    1.9128   54.8623 N.2     1  ZINC001411334959   -0.2800
      7 N7         -7.4762    2.0266   56.0704 N.pl3   1  ZINC001411334959   -0.2500
      8 N8         -8.6323    1.4784   56.1995 N.2     1  ZINC001411334959   -0.2800
      9 C9         -8.9970    0.9849   55.0378 C.2     1  ZINC001411334959   -0.0200
     10 N10        -4.8408    2.8268   52.3542 N.am    1  ZINC001411334959   -0.7200
     11 C11        -3.3948    2.6138   52.4538 C.3     1  ZINC001411334959    0.1200
     12 C12        -2.7724    2.0088   51.1843 C.3     1  ZINC001411334959   -0.1400
     13 C13        -1.5871    2.9633   51.4054 C.3     1  ZINC001411334959   -0.1200
     14 C14        -1.0488    3.5815   50.1136 C.3     1  ZINC001411334959    0.1300
     15 N15        -0.7993    2.5226   49.1325 N.am    1  ZINC001411334959   -0.7200
     16 C16        -0.1943    2.8152   47.9642 C.2     1  ZINC001411334959    0.5100
     17 O17         0.1446    3.9550   47.7256 O.2     1  ZINC001411334959   -0.5100
     18 C18         0.0608    1.7263   46.9542 C.3     1  ZINC001411334959    0.0700
     19 F19         0.4300    2.2716   45.7198 F       1  ZINC001411334959   -0.1800
     20 C20         1.1394    0.7353   47.4704 C.3     1  ZINC001411334959   -0.1600
     21 C21         0.7264   -0.5613   46.7292 C.3     1  ZINC001411334959    0.0500
     22 O22        -0.7095   -0.5349   46.6992 O.3     1  ZINC001411334959   -0.3700
     23 C23        -1.1764    0.8150   46.8043 C.3     1  ZINC001411334959    0.0400
     24 C24        -2.5650    3.8758   52.1643 C.3     1  ZINC001411334959   -0.1400
     25 H25        -7.3963    2.9844   52.3702 H       1  ZINC001411334959    0.1000
     26 H26        -7.4394    1.9992   50.8884 H       1  ZINC001411334959    0.1000
     27 H27        -8.8804    0.7983   52.2939 H       1  ZINC001411334959    0.1000
     28 H28        -7.3309   -0.0298   52.5790 H       1  ZINC001411334959    0.0900
     29 H29        -6.9915    2.4658   56.7866 H       1  ZINC001411334959    0.4700
     30 H30        -9.9148    0.4624   54.8120 H       1  ZINC001411334959    0.2000
     31 H31        -5.2137    3.7077   52.5151 H       1  ZINC001411334959    0.4000
     32 H32        -3.1045    2.1012   53.3709 H       1  ZINC001411334959    0.1200
     33 H33        -2.5099    0.9558   51.2859 H       1  ZINC001411334959    0.0800
     34 H34        -3.3390    2.2192   50.2773 H       1  ZINC001411334959    0.0900
     35 H35        -0.8010    2.5449   52.0340 H       1  ZINC001411334959    0.1000
     36 H36        -1.7816    4.2823   49.7133 H       1  ZINC001411334959    0.0800
     37 H37        -0.1184    4.1092   50.3234 H       1  ZINC001411334959    0.0800
     38 H38        -1.0693    1.6107   49.3237 H       1  ZINC001411334959    0.4100
     39 H39         2.1392    1.0545   47.1761 H       1  ZINC001411334959    0.1000
     40 H40         1.0716    0.6087   48.5509 H       1  ZINC001411334959    0.1100
     41 H41         1.1261   -0.5610   45.7151 H       1  ZINC001411334959    0.0700
     42 H42         1.0775   -1.4372   47.2749 H       1  ZINC001411334959    0.1000
     43 H43        -1.8189    0.9171   47.6789 H       1  ZINC001411334959    0.0900
     44 H44        -1.7286    1.0864   45.9046 H       1  ZINC001411334959    0.0900
     45 H45        -3.0750    4.5965   51.5251 H       1  ZINC001411334959    0.0900
     46 H46        -2.1351    4.3299   53.0569 H       1  ZINC001411334959    0.0800
@<TRIPOS>BOND
     1     1     2    2
     2     2     3    1
     3     2    10   am
     4     3     4    1
     5     3    25    1
     6     3    26    1
     7     4     5    1
     8     4    27    1
     9     4    28    1
    10     5     9    1
    11     5     6    2
    12     6     7    1
    13     7     8    1
    14     7    29    1
    15     8     9    2
    16     9    30    1
    17    10    11    1
    18    10    31    1
    19    11    24    1
    20    11    12    1
    21    11    32    1
    22    12    13    1
    23    12    33    1
    24    12    34    1
    25    13    14    1
    26    13    24    1
    27    13    35    1
    28    14    15    1
    29    14    36    1
    30    14    37    1
    31    15    16   am
    32    15    38    1
    33    16    17    2
    34    16    18    1
    35    18    23    1
    36    18    19    1
    37    18    20    1
    38    20    21    1
    39    20    39    1
    40    20    40    1
    41    21    22    1
    42    21    41    1
    43    21    42    1
    44    22    23    1
    45    23    43    1
    46    23    44    1
    47    24    45    1
    48    24    46    1
@<TRIPOS>SUBSTRUCTURE
     1 ZINC001411334959        1 TEMP              0 ****  ****    0 ROOT


##########                                Name:    ZINC000124554441
##########                DOCK_Rotatable_Bonds:                   9
##########                         Heavy_Atoms:                  26
##########                    Molecular_Weight:             375.898
##########                DOCK_Rotatable_Bonds:                   9
##########                       Formal_Charge:         -0.00999991
##########                     HBond_Acceptors:                   6
##########                        HBond_Donors:                   1
##########                         Heavy_Atoms:                  26
##########                          Grid_Score:          -34.550499
##########                     Grid_vdw_energy:          -34.911499
##########                      Grid_es_energy:            0.361000
##########           Internal_energy_repulsive:           11.246324

@<TRIPOS>MOLECULE
ZINC000124554441
 52 53 1 0 0
SMALL
USER_CHARGES


@<TRIPOS>ATOM
      1 C1         -9.4385    0.0561   64.0286 C.3     1  ZINC000124554441   -0.1500
      2 C2         -8.7843    0.5325   62.7301 C.3     1  ZINC000124554441   -0.1300
      3 C3         -9.5028   -0.0983   61.5357 C.3     1  ZINC000124554441   -0.1200
      4 C4         -8.8858    0.4225   60.2361 C.3     1  ZINC000124554441   -0.1200
      5 C5         -9.7953    0.0626   59.0596 C.3     1  ZINC000124554441   -0.1300
      6 C6         -9.7678   -1.4510   58.8381 C.3     1  ZINC000124554441    0.1200
      7 N7        -10.3767   -1.7663   57.5434 N.am    1  ZINC000124554441   -0.7300
      8 C8        -10.7469   -3.0315   57.2629 C.2     1  ZINC000124554441    0.5200
      9 O9        -10.5747   -3.9093   58.0819 O.2     1  ZINC000124554441   -0.5300
     10 C10       -11.3749   -3.3554   55.9319 C.3     1  ZINC000124554441   -0.1200
     11 H11       -10.6986   -3.9855   55.3543 H       1  ZINC000124554441    0.1000
     12 C12       -12.6955   -4.0952   56.1567 C.3     1  ZINC000124554441   -0.1000
     13 C13       -13.3179   -4.4536   54.8053 C.3     1  ZINC000124554441   -0.1400
     14 C14       -13.6108   -3.1679   54.0255 C.3     1  ZINC000124554441    0.0900
     15 N15       -12.3739   -2.3804   53.9304 N.am    1  ZINC000124554441   -0.6000
     16 C16       -11.9164   -1.9622   52.7337 C.2     1  ZINC000124554441    0.5600
     17 O17       -12.5281   -2.2358   51.7198 O.2     1  ZINC000124554441   -0.5200
     18 C18       -10.6696   -1.1702   52.6543 C.ar    1  ZINC000124554441   -0.0900
     19 C19       -10.6876    0.1921   52.9597 C.ar    1  ZINC000124554441   -0.0900
     20 C20        -9.5275    0.9307   52.8861 C.ar    1  ZINC000124554441   -0.0600
     21 C21        -8.3319    0.3173   52.5054 C.ar    1  ZINC000124554441    0.0100
     22 C22        -7.1255    1.0850   52.4288 C.1     1  ZINC000124554441    0.2400
     23 N23        -6.1685    1.6941   52.3681 N.1     1  ZINC000124554441   -0.3800
     24 C24        -8.3134   -1.0469   52.1994 C.ar    1  ZINC000124554441    0.0000
     25 Cl25       -6.8279   -1.8109   51.7266 Cl      1  ZINC000124554441   -0.0400
     26 C26        -9.4743   -1.7864   52.2795 C.ar    1  ZINC000124554441   -0.0600
     27 C27       -11.6449   -2.0572   55.1645 C.3     1  ZINC000124554441    0.1200
     28 H28       -10.4872    0.3530   64.0372 H       1  ZINC000124554441    0.0500
     29 H29        -9.3677   -1.0296   64.0939 H       1  ZINC000124554441    0.0500
     30 H30        -8.9266    0.5055   64.8794 H       1  ZINC000124554441    0.0500
     31 H31        -8.8551    1.6182   62.6646 H       1  ZINC000124554441    0.0600
     32 H32        -7.7355    0.2356   62.7214 H       1  ZINC000124554441    0.0600
     33 H33        -9.3972   -1.1823   61.5792 H       1  ZINC000124554441    0.0600
     34 H34       -10.5601    0.1653   61.5671 H       1  ZINC000124554441    0.0600
     35 H35        -8.7777    1.5056   60.2937 H       1  ZINC000124554441    0.0700
     36 H36        -7.9063   -0.0331   60.0908 H       1  ZINC000124554441    0.0700
     37 H37       -10.8151    0.3792   59.2787 H       1  ZINC000124554441    0.0700
     38 H38        -9.4432    0.5678   58.1603 H       1  ZINC000124554441    0.0700
     39 H39        -8.7356   -1.8011   58.8490 H       1  ZINC000124554441    0.0700
     40 H40       -10.3274   -1.9448   59.6325 H       1  ZINC000124554441    0.0700
     41 H41       -10.5133   -1.0644   56.8880 H       1  ZINC000124554441    0.4000
     42 H42       -12.5089   -5.0072   56.7238 H       1  ZINC000124554441    0.0800
     43 H43       -13.3801   -3.4554   56.7135 H       1  ZINC000124554441    0.0800
     44 H44       -12.6235   -5.0732   54.2378 H       1  ZINC000124554441    0.0700
     45 H45       -14.2467   -5.0009   54.9662 H       1  ZINC000124554441    0.0900
     46 H46       -13.9615   -3.4195   53.0246 H       1  ZINC000124554441    0.1000
     47 H47       -14.3730   -2.5895   54.5475 H       1  ZINC000124554441    0.0800
     48 H48       -11.6120    0.6671   53.2535 H       1  ZINC000124554441    0.1500
     49 H49        -9.5423    1.9843   53.1225 H       1  ZINC000124554441    0.1500
     50 H50        -9.4608   -2.8401   52.0434 H       1  ZINC000124554441    0.1500
     51 H51       -12.2465   -1.3883   55.7799 H       1  ZINC000124554441    0.0800
     52 H52       -10.6993   -1.5759   54.9149 H       1  ZINC000124554441    0.1000
@<TRIPOS>BOND
     1     1     2    1
     2     1    28    1
     3     1    29    1
     4     1    30    1
     5     2     3    1
     6     2    31    1
     7     2    32    1
     8     3     4    1
     9     3    33    1
    10     3    34    1
    11     4     5    1
    12     4    35    1
    13     4    36    1
    14     5     6    1
    15     5    37    1
    16     5    38    1
    17     6     7    1
    18     6    39    1
    19     6    40    1
    20     7     8   am
    21     7    41    1
    22     8     9    2
    23     8    10    1
    24    10    11    1
    25    10    27    1
    26    10    12    1
    27    12    13    1
    28    12    42    1
    29    12    43    1
    30    13    14    1
    31    13    44    1
    32    13    45    1
    33    14    15    1
    34    14    46    1
    35    14    47    1
    36    15    16   am
    37    15    27    1
    38    16    17    2
    39    16    18    1
    40    18    26   ar
    41    18    19   ar
    42    19    20   ar
    43    19    48    1
    44    20    21   ar
    45    20    49    1
    46    21    22    1
    47    21    24   ar
    48    22    23    3
    49    24    25    1
    50    24    26   ar
    51    26    50    1
    52    27    51    1
    53    27    52    1
@<TRIPOS>SUBSTRUCTURE
     1 ZINC000124554441        1 TEMP              0 ****  ****    0 ROOT


##########                                Name:    ZINC000489986384
##########                DOCK_Rotatable_Bonds:                  11
##########                         Heavy_Atoms:                  31
##########                    Molecular_Weight:             415.492
##########                DOCK_Rotatable_Bonds:                  11
##########                       Formal_Charge:          -0.0499997
##########                     HBond_Acceptors:                   6
##########                        HBond_Donors:                   2
##########                         Heavy_Atoms:                  31
##########                          Grid_Score:          -34.445210
##########                     Grid_vdw_energy:          -33.344479
##########                      Grid_es_energy:           -1.100731
##########           Internal_energy_repulsive:            9.407522

@<TRIPOS>MOLECULE
ZINC000489986384
 56 59 1 0 0
SMALL
USER_CHARGES


@<TRIPOS>ATOM
      1 O1        -11.9735    1.9393   51.4673 O.2     1  ZINC000489986384   -0.5000
      2 C2        -12.4405    0.9790   52.0424 C.2     1  ZINC000489986384    0.4900
      3 C3        -11.7053    0.3673   53.2070 C.3     1  ZINC000489986384    0.0900
      4 N4        -10.6317   -0.4956   52.7080 N.pl3   1  ZINC000489986384   -0.4700
      5 C5         -9.3211   -0.1242   52.4832 C.ar    1  ZINC000489986384    0.0700
      6 C6         -8.6141    1.0614   52.6271 C.ar    1  ZINC000489986384   -0.1100
      7 C7         -7.2738    1.1008   52.3050 C.ar    1  ZINC000489986384   -0.0900
      8 C8         -6.6292   -0.0356   51.8382 C.ar    1  ZINC000489986384   -0.1300
      9 C9         -7.3093   -1.2113   51.6896 C.ar    1  ZINC000489986384   -0.0600
     10 C10        -8.6675   -1.2751   52.0106 C.ar    1  ZINC000489986384    0.0500
     11 N11        -9.5933   -2.2677   51.9720 N.2     1  ZINC000489986384   -0.4600
     12 C12       -10.7398   -1.8129   52.3859 C.2     1  ZINC000489986384    0.2800
     13 C13       -12.0061   -2.6241   52.4833 C.3     1  ZINC000489986384    0.1400
     14 O14       -11.7323   -3.8557   53.1543 O.3     1  ZINC000489986384   -0.3000
     15 C15       -12.1039   -3.9436   54.4585 C.ar    1  ZINC000489986384    0.1300
     16 C16       -13.4025   -4.3031   54.7883 C.ar    1  ZINC000489986384   -0.2100
     17 C17       -13.7776   -4.3923   56.1149 C.ar    1  ZINC000489986384   -0.0800
     18 C18       -12.8600   -4.1230   57.1136 C.ar    1  ZINC000489986384   -0.1600
     19 C19       -11.5652   -3.7640   56.7875 C.ar    1  ZINC000489986384   -0.0800
     20 C20       -11.1835   -3.6795   55.4625 C.ar    1  ZINC000489986384   -0.1500
     21 N21       -13.6197    0.4623   51.6435 N.am    1  ZINC000489986384   -0.7300
     22 C22       -14.3344    1.0569   50.5114 C.3     1  ZINC000489986384    0.1300
     23 C23       -13.7630    0.5080   49.2025 C.3     1  ZINC000489986384   -0.0600
     24 H24       -12.6873    0.3658   49.3069 H       1  ZINC000489986384    0.0900
     25 C25       -14.4256   -0.8325   48.8792 C.3     1  ZINC000489986384    0.0800
     26 O26       -13.7588   -1.4383   47.7699 O.3     1  ZINC000489986384   -0.5700
     27 C27       -14.0346    1.4845   48.0872 C.ar    1  ZINC000489986384   -0.0700
     28 C28       -13.0667    1.7282   47.1309 C.ar    1  ZINC000489986384   -0.1100
     29 C29       -13.3158    2.6239   46.1079 C.ar    1  ZINC000489986384   -0.1200
     30 C30       -14.5330    3.2757   46.0410 C.ar    1  ZINC000489986384   -0.1200
     31 C31       -15.5013    3.0314   46.9969 C.ar    1  ZINC000489986384   -0.1200
     32 C32       -15.2538    2.1324   48.0174 C.ar    1  ZINC000489986384   -0.1100
     33 H33       -11.2785    1.1586   53.8234 H       1  ZINC000489986384    0.1200
     34 H34       -12.3989   -0.2244   53.8043 H       1  ZINC000489986384    0.1200
     35 H35        -9.1112    1.9490   52.9895 H       1  ZINC000489986384    0.1200
     36 H36        -6.7223    2.0226   52.4165 H       1  ZINC000489986384    0.1300
     37 H37        -5.5792    0.0097   51.5892 H       1  ZINC000489986384    0.1300
     38 H38        -6.7979   -2.0897   51.3246 H       1  ZINC000489986384    0.1300
     39 H39       -12.7545   -2.0636   53.0434 H       1  ZINC000489986384    0.0800
     40 H40       -12.3824   -2.8320   51.4816 H       1  ZINC000489986384    0.1000
     41 H41       -14.1198   -4.5128   54.0086 H       1  ZINC000489986384    0.1300
     42 H42       -14.7885   -4.6721   56.3722 H       1  ZINC000489986384    0.1300
     43 H43       -13.1553   -4.1929   58.1501 H       1  ZINC000489986384    0.1200
     44 H44       -10.8504   -3.5540   57.5694 H       1  ZINC000489986384    0.1300
     45 H45       -10.1720   -3.3991   55.2083 H       1  ZINC000489986384    0.1300
     46 H46       -13.9950   -0.3033   52.1060 H       1  ZINC000489986384    0.4000
     47 H47       -15.3932    0.8072   50.5784 H       1  ZINC000489986384    0.0800
     48 H48       -14.2143    2.1400   50.5342 H       1  ZINC000489986384    0.0800
     49 H49       -14.3583   -1.4896   49.7463 H       1  ZINC000489986384    0.0500
     50 H50       -15.4735   -0.6688   48.6280 H       1  ZINC000489986384    0.0500
     51 H51       -12.8163   -1.5975   47.9165 H       1  ZINC000489986384    0.3800
     52 H52       -12.1157    1.2190   47.1832 H       1  ZINC000489986384    0.1200
     53 H53       -12.5593    2.8148   45.3611 H       1  ZINC000489986384    0.1200
     54 H54       -14.7274    3.9760   45.2422 H       1  ZINC000489986384    0.1200
     55 H55       -16.4522    3.5407   46.9448 H       1  ZINC000489986384    0.1200
     56 H56       -16.0103    1.9415   48.7642 H       1  ZINC000489986384    0.1200
@<TRIPOS>BOND
     1     1     2    2
     2     2     3    1
     3     2    21   am
     4     3     4    1
     5     3    33    1
     6     3    34    1
     7     4    12    1
     8     4     5    1
     9     5    10   ar
    10     5     6   ar
    11     6     7   ar
    12     6    35    1
    13     7     8   ar
    14     7    36    1
    15     8     9   ar
    16     8    37    1
    17     9    10   ar
    18     9    38    1
    19    10    11    1
    20    11    12    2
    21    12    13    1
    22    13    14    1
    23    13    39    1
    24    13    40    1
    25    14    15    1
    26    15    20   ar
    27    15    16   ar
    28    16    17   ar
    29    16    41    1
    30    17    18   ar
    31    17    42    1
    32    18    19   ar
    33    18    43    1
    34    19    20   ar
    35    19    44    1
    36    20    45    1
    37    21    22    1
    38    21    46    1
    39    22    23    1
    40    22    47    1
    41    22    48    1
    42    23    24    1
    43    23    25    1
    44    23    27    1
    45    25    26    1
    46    25    49    1
    47    25    50    1
    48    26    51    1
    49    27    32   ar
    50    27    28   ar
    51    28    29   ar
    52    28    52    1
    53    29    30   ar
    54    29    53    1
    55    30    31   ar
    56    30    54    1
    57    31    32   ar
    58    31    55    1
    59    32    56    1
@<TRIPOS>SUBSTRUCTURE
     1 ZINC000489986384        1 TEMP              0 ****  ****    0 ROOT


##########                                Name:    ZINC000487792031
##########                DOCK_Rotatable_Bonds:                  12
##########                         Heavy_Atoms:                  29
##########                    Molecular_Weight:             414.569
##########                DOCK_Rotatable_Bonds:                  12
##########                       Formal_Charge:          -0.0100001
##########                     HBond_Acceptors:                   6
##########                        HBond_Donors:                   1
##########                         Heavy_Atoms:                  29
##########                          Grid_Score:          -34.434555
##########                     Grid_vdw_energy:          -32.721596
##########                      Grid_es_energy:           -1.712960
##########           Internal_energy_repulsive:           19.310289

@<TRIPOS>MOLECULE
ZINC000487792031
 59 60 1 0 0
SMALL
USER_CHARGES


@<TRIPOS>ATOM
      1 C1         -6.5401   -1.4758   51.3959 C.2     1  ZINC000487792031   -0.1900
      2 C2         -6.6701   -0.3387   52.0332 C.2     1  ZINC000487792031   -0.1500
      3 C3         -6.6149    0.9616   51.2734 C.3     1  ZINC000487792031   -0.0900
      4 C4         -7.5085    1.9939   51.9637 C.3     1  ZINC000487792031   -0.0900
      5 C5         -6.9081    2.3609   53.3223 C.3     1  ZINC000487792031   -0.0700
      6 H6         -6.4043    1.4910   53.7438 H       1  ZINC000487792031    0.1100
      7 C7         -5.9148    3.4805   53.1466 C.2     1  ZINC000487792031    0.5200
      8 O8         -6.2816    4.6341   53.2226 O.2     1  ZINC000487792031   -0.5300
      9 N9         -4.6189    3.2000   52.9050 N.am    1  ZINC000487792031   -0.7200
     10 C10        -3.6537    4.2884   52.7324 C.3     1  ZINC000487792031    0.1500
     11 C11        -2.5891    3.8652   51.7533 C.ar    1  ZINC000487792031   -0.0500
     12 C12        -1.9777    2.6326   51.8869 C.ar    1  ZINC000487792031   -0.1200
     13 C13        -1.0012    2.2445   50.9888 C.ar    1  ZINC000487792031   -0.0200
     14 C14        -0.6365    3.0886   49.9566 C.ar    1  ZINC000487792031   -0.6700
     15 S15         0.6085    2.5941   48.8121 S.o2    1  ZINC000487792031    2.6900
     16 O16         1.2976    3.7775   48.4325 O.2     1  ZINC000487792031   -0.9500
     17 O17         1.2569    1.4676   49.3864 O.2     1  ZINC000487792031   -0.9500
     18 N18        -0.1641    2.0467   47.4536 N.am    1  ZINC000487792031   -1.0000
     19 C19        -1.0847    0.9106   47.5420 C.3     1  ZINC000487792031    0.1200
     20 C20        -0.4642   -0.3038   46.8482 C.3     1  ZINC000487792031   -0.1800
     21 C21         0.0731    2.6987   46.1632 C.3     1  ZINC000487792031    0.1100
     22 C22         1.4614    2.3161   45.6461 C.3     1  ZINC000487792031   -0.1800
     23 C23        -1.2488    4.3207   49.8222 C.ar    1  ZINC000487792031   -0.0200
     24 C24        -2.2281    4.7073   50.7181 C.ar    1  ZINC000487792031   -0.1200
     25 C25        -8.0065    2.8054   54.2533 C.ar    1  ZINC000487792031   -0.0800
     26 C26        -9.0102    3.6363   53.7914 C.ar    1  ZINC000487792031   -0.1100
     27 C27       -10.0177    4.0440   54.6455 C.ar    1  ZINC000487792031   -0.1100
     28 C28       -10.0219    3.6205   55.9614 C.ar    1  ZINC000487792031   -0.1200
     29 C29        -9.0188    2.7889   56.4231 C.ar    1  ZINC000487792031   -0.1200
     30 C30        -8.0136    2.3777   55.5678 C.ar    1  ZINC000487792031   -0.1100
     31 H31        -6.5797   -2.4077   51.9404 H       1  ZINC000487792031    0.1000
     32 H32        -6.3978   -1.4816   50.3253 H       1  ZINC000487792031    0.1000
     33 H33        -6.8167   -0.3331   53.1032 H       1  ZINC000487792031    0.1100
     34 H34        -5.5880    1.3264   51.2516 H       1  ZINC000487792031    0.0700
     35 H35        -6.9653    0.8016   50.2536 H       1  ZINC000487792031    0.0700
     36 H36        -7.5773    2.8876   51.3435 H       1  ZINC000487792031    0.0800
     37 H37        -8.5041    1.5742   52.1079 H       1  ZINC000487792031    0.0700
     38 H38        -4.3254    2.2774   52.8453 H       1  ZINC000487792031    0.4000
     39 H39        -4.1665    5.1720   52.3522 H       1  ZINC000487792031    0.0800
     40 H40        -3.1927    4.5208   53.6924 H       1  ZINC000487792031    0.0800
     41 H41        -2.2627    1.9730   52.6932 H       1  ZINC000487792031    0.1400
     42 H42        -0.5231    1.2818   51.0935 H       1  ZINC000487792031    0.1400
     43 H43        -1.2710    0.6745   48.5897 H       1  ZINC000487792031    0.0800
     44 H44        -2.0253    1.1663   47.0543 H       1  ZINC000487792031    0.0800
     45 H45        -0.2779   -0.0678   45.8005 H       1  ZINC000487792031    0.0600
     46 H46         0.4764   -0.5596   47.3359 H       1  ZINC000487792031    0.0600
     47 H47        -1.1491   -1.1491   46.9140 H       1  ZINC000487792031    0.0700
     48 H48        -0.6829    2.3746   45.4479 H       1  ZINC000487792031    0.0900
     49 H49         0.0166    3.7801   46.2866 H       1  ZINC000487792031    0.0900
     50 H50         2.2175    2.6402   46.3614 H       1  ZINC000487792031    0.0600
     51 H51         1.5179    1.2347   45.5227 H       1  ZINC000487792031    0.0600
     52 H52         1.6378    2.8012   44.6861 H       1  ZINC000487792031    0.0700
     53 H53        -0.9642    4.9801   49.0156 H       1  ZINC000487792031    0.1400
     54 H54        -2.7065    5.6699   50.6131 H       1  ZINC000487792031    0.1400
     55 H55        -9.0068    3.9671   52.7634 H       1  ZINC000487792031    0.1200
     56 H56       -10.8014    4.6937   54.2849 H       1  ZINC000487792031    0.1200
     57 H57       -10.8088    3.9396   56.6288 H       1  ZINC000487792031    0.1200
     58 H58        -9.0219    2.4583   57.4512 H       1  ZINC000487792031    0.1200
     59 H59        -7.2299    1.7280   55.9286 H       1  ZINC000487792031    0.1200
@<TRIPOS>BOND
     1     1     2    2
     2     1    31    1
     3     1    32    1
     4     2     3    1
     5     2    33    1
     6     3     4    1
     7     3    34    1
     8     3    35    1
     9     4     5    1
    10     4    36    1
    11     4    37    1
    12     5     6    1
    13     5     7    1
    14     5    25    1
    15     7     8    2
    16     7     9   am
    17     9    10    1
    18     9    38    1
    19    10    11    1
    20    10    39    1
    21    10    40    1
    22    11    24   ar
    23    11    12   ar
    24    12    13   ar
    25    12    41    1
    26    13    14   ar
    27    13    42    1
    28    14    15    1
    29    14    23   ar
    30    15    16    2
    31    15    17    2
    32    15    18   am
    33    18    19    1
    34    18    21    1
    35    19    20    1
    36    19    43    1
    37    19    44    1
    38    20    45    1
    39    20    46    1
    40    20    47    1
    41    21    22    1
    42    21    48    1
    43    21    49    1
    44    22    50    1
    45    22    51    1
    46    22    52    1
    47    23    24   ar
    48    23    53    1
    49    24    54    1
    50    25    30   ar
    51    25    26   ar
    52    26    27   ar
    53    26    55    1
    54    27    28   ar
    55    27    56    1
    56    28    29   ar
    57    28    57    1
    58    29    30   ar
    59    29    58    1
    60    30    59    1
@<TRIPOS>SUBSTRUCTURE
     1 ZINC000487792031        1 TEMP              0 ****  ****    0 ROOT


##########                                Name:    ZINC000375302598
##########                DOCK_Rotatable_Bonds:                   8
##########                         Heavy_Atoms:                  27
##########                    Molecular_Weight:             368.479
##########                DOCK_Rotatable_Bonds:                   8
##########                       Formal_Charge:               -0.02
##########                     HBond_Acceptors:                   6
##########                        HBond_Donors:                   1
##########                         Heavy_Atoms:                  27
##########                          Grid_Score:          -34.422146
##########                     Grid_vdw_energy:          -34.333466
##########                      Grid_es_energy:           -0.088681
##########           Internal_energy_repulsive:           10.651068

@<TRIPOS>MOLECULE
ZINC000375302598
 55 58 1 0 0
SMALL
USER_CHARGES


@<TRIPOS>ATOM
      1 C1         -6.4577   -0.9106   51.5715 C.3     1  ZINC000375302598   -0.1500
      2 C2         -6.9057    0.5383   51.3691 C.3     1  ZINC000375302598   -0.0300
      3 C3         -5.8579    1.4700   51.9216 C.2     1  ZINC000375302598    0.1800
      4 N4         -4.5624    1.3850   51.7380 N.2     1  ZINC000375302598   -0.4700
      5 C5         -4.0324    2.4206   52.4130 C.2     1  ZINC000375302598    0.1800
      6 C6         -2.5686    2.7645   52.5132 C.3     1  ZINC000375302598    0.1500
      7 N7         -2.1453    3.4645   51.2930 N.3     1  ZINC000375302598   -0.5300
      8 C8         -1.4809    4.7331   51.6177 C.3     1  ZINC000375302598    0.0500
      9 C9         -1.1853    5.5005   50.3270 C.3     1  ZINC000375302598   -0.1100
     10 C10        -0.2869    4.6481   49.4266 C.3     1  ZINC000375302598   -0.1300
     11 C11        -0.9811    3.3130   49.1431 C.3     1  ZINC000375302598    0.1500
     12 H12        -1.9126    3.4939   48.6068 H       1  ZINC000375302598    0.1000
     13 N13        -0.1038    2.4689   48.3284 N.am    1  ZINC000375302598   -0.7300
     14 C14        -0.6306    1.5022   47.5508 C.2     1  ZINC000375302598    0.5200
     15 O15        -1.8309    1.3303   47.5268 O.2     1  ZINC000375302598   -0.5300
     16 C16         0.2718    0.6350   46.7114 C.3     1  ZINC000375302598   -0.1100
     17 C17         1.6885    0.6644   47.2884 C.3     1  ZINC000375302598   -0.1200
     18 H18         2.0136    1.6250   47.6878 H       1  ZINC000375302598    0.1200
     19 C19         2.7441   -0.2143   46.6143 C.3     1  ZINC000375302598   -0.1700
     20 C20         2.1922   -0.5990   47.9892 C.3     1  ZINC000375302598   -0.1100
     21 H21         1.5144   -1.4512   48.0390 H       1  ZINC000375302598    0.1100
     22 C22         3.1004   -0.4206   49.1785 C.ar    1  ZINC000375302598   -0.0500
     23 C23         3.9624    0.6587   49.2340 C.ar    1  ZINC000375302598   -0.1200
     24 C24         4.7955    0.8223   50.3249 C.ar    1  ZINC000375302598   -0.1200
     25 C25         4.7663   -0.0929   51.3605 C.ar    1  ZINC000375302598   -0.1300
     26 C26         3.9037   -1.1717   51.3053 C.ar    1  ZINC000375302598   -0.1200
     27 C27         3.0675   -1.3330   50.2163 C.ar    1  ZINC000375302598   -0.1100
     28 C28        -1.2827    2.6091   50.4680 C.3     1  ZINC000375302598    0.0500
     29 N29        -5.0145    3.0704   52.9624 N.2     1  ZINC000375302598   -0.3800
     30 O30        -6.0721    2.5439   52.6876 O.3     1  ZINC000375302598    0.0800
     31 H31        -6.3241   -1.1043   52.6358 H       1  ZINC000375302598    0.0600
     32 H32        -7.2155   -1.5844   51.1718 H       1  ZINC000375302598    0.0800
     33 H33        -5.5142   -1.0752   51.0510 H       1  ZINC000375302598    0.0600
     34 H34        -7.0392    0.7321   50.3048 H       1  ZINC000375302598    0.1100
     35 H35        -7.8492    0.7030   51.8896 H       1  ZINC000375302598    0.1000
     36 H36        -2.4050    3.4089   53.3770 H       1  ZINC000375302598    0.0700
     37 H37        -1.9874    1.8495   52.6274 H       1  ZINC000375302598    0.1100
     38 H38        -2.1321    5.3315   52.2549 H       1  ZINC000375302598    0.0800
     39 H39        -0.5469    4.5303   52.1416 H       1  ZINC000375302598    0.0400
     40 H40        -2.1201    5.7158   49.8094 H       1  ZINC000375302598    0.0700
     41 H41        -0.6781    6.4350   50.5673 H       1  ZINC000375302598    0.0700
     42 H42        -0.1091    5.1728   48.4878 H       1  ZINC000375302598    0.0700
     43 H43         0.6633    4.4653   49.9283 H       1  ZINC000375302598    0.0600
     44 H44         0.8563    2.6056   48.3485 H       1  ZINC000375302598    0.4000
     45 H45        -0.1014   -0.3892   46.7162 H       1  ZINC000375302598    0.1000
     46 H46         0.2883    1.0108   45.6884 H       1  ZINC000375302598    0.1000
     47 H47         2.4294   -0.8132   45.7598 H       1  ZINC000375302598    0.1000
     48 H48         3.7639    0.1681   46.5705 H       1  ZINC000375302598    0.1000
     49 H49         3.9852    1.3738   48.4250 H       1  ZINC000375302598    0.1200
     50 H50         5.4695    1.6651   50.3680 H       1  ZINC000375302598    0.1200
     51 H51         5.4177    0.0345   52.2124 H       1  ZINC000375302598    0.1200
     52 H52         3.8811   -1.8870   52.1141 H       1  ZINC000375302598    0.1200
     53 H53         2.3935   -2.1758   50.1733 H       1  ZINC000375302598    0.1200
     54 H54        -0.3496    2.4161   50.9974 H       1  ZINC000375302598    0.0400
     55 H55        -1.7898    1.6647   50.2704 H       1  ZINC000375302598    0.0900
@<TRIPOS>BOND
     1     1     2    1
     2     1    31    1
     3     1    32    1
     4     1    33    1
     5     2     3    1
     6     2    34    1
     7     2    35    1
     8     3    30    1
     9     3     4    2
    10     4     5    1
    11     5     6    1
    12     5    29    2
    13     6     7    1
    14     6    36    1
    15     6    37    1
    16     7    28    1
    17     7     8    1
    18     8     9    1
    19     8    38    1
    20     8    39    1
    21     9    10    1
    22     9    40    1
    23     9    41    1
    24    10    11    1
    25    10    42    1
    26    10    43    1
    27    11    12    1
    28    11    13    1
    29    11    28    1
    30    13    14   am
    31    13    44    1
    32    14    15    2
    33    14    16    1
    34    16    17    1
    35    16    45    1
    36    16    46    1
    37    17    18    1
    38    17    20    1
    39    17    19    1
    40    19    20    1
    41    19    47    1
    42    19    48    1
    43    20    21    1
    44    20    22    1
    45    22    27   ar
    46    22    23   ar
    47    23    24   ar
    48    23    49    1
    49    24    25   ar
    50    24    50    1
    51    25    26   ar
    52    25    51    1
    53    26    27   ar
    54    26    52    1
    55    27    53    1
    56    28    54    1
    57    28    55    1
    58    29    30    1
@<TRIPOS>SUBSTRUCTURE
     1 ZINC000375302598        1 TEMP              0 ****  ****    0 ROOT


##########                                Name:    ZINC000672622940
##########                DOCK_Rotatable_Bonds:                   7
##########                         Heavy_Atoms:                  30
##########                    Molecular_Weight:             416.523
##########                DOCK_Rotatable_Bonds:                   7
##########                       Formal_Charge:          -0.0100002
##########                     HBond_Acceptors:                   9
##########                        HBond_Donors:                   1
##########                         Heavy_Atoms:                  30
##########                          Grid_Score:          -34.392105
##########                     Grid_vdw_energy:          -33.301167
##########                      Grid_es_energy:           -1.090937
##########           Internal_energy_repulsive:           19.982489

@<TRIPOS>MOLECULE
ZINC000672622940
 62 65 1 0 0
SMALL
USER_CHARGES


@<TRIPOS>ATOM
      1 C1        -11.5695   -2.4507   61.1640 C.3     1  ZINC000672622940    0.0800
      2 N2        -12.0529   -1.0965   61.4444 N.am    1  ZINC000672622940   -0.6200
      3 C3        -11.1907   -0.1413   62.1446 C.3     1  ZINC000672622940    0.0700
      4 C4        -13.2910   -0.7295   61.0583 C.2     1  ZINC000672622940    0.5200
      5 O5        -13.6907    0.3920   61.2891 O.2     1  ZINC000672622940   -0.5300
      6 C6        -14.1785   -1.7128   60.3396 C.3     1  ZINC000672622940   -0.1000
      7 H7        -13.8554   -2.7284   60.5680 H       1  ZINC000672622940    0.1000
      8 C8        -15.6259   -1.5229   60.7977 C.3     1  ZINC000672622940   -0.1300
      9 C9        -16.5270   -2.5212   60.0681 C.3     1  ZINC000672622940   -0.1100
     10 C10       -16.4343   -2.2837   58.5595 C.3     1  ZINC000672622940   -0.1300
     11 C11       -14.9869   -2.4737   58.1013 C.3     1  ZINC000672622940    0.1400
     12 H12       -14.6637   -3.4893   58.3298 H       1  ZINC000672622940    0.1000
     13 N13       -14.8981   -2.2463   56.6567 N.am    1  ZINC000672622940   -0.6900
     14 C14       -14.0664   -2.9959   55.9064 C.2     1  ZINC000672622940    0.5100
     15 O15       -13.3923   -3.8602   56.4272 O.2     1  ZINC000672622940   -0.5100
     16 C16       -13.9746   -2.7628   54.4331 C.2     1  ZINC000672622940    0.5100
     17 O17       -14.6668   -3.4070   53.6725 O.2     1  ZINC000672622940   -0.5200
     18 N18       -13.1230   -1.8370   53.9491 N.am    1  ZINC000672622940   -0.5800
     19 C19       -12.2741   -1.0534   54.8569 C.3     1  ZINC000672622940    0.0700
     20 C20       -10.8160   -1.1866   54.4064 C.3     1  ZINC000672622940   -0.1200
     21 C21       -10.7022   -0.7831   52.9346 C.3     1  ZINC000672622940    0.0000
     22 C22        -9.2633   -0.8802   52.4971 C.2     1  ZINC000672622940    0.2000
     23 N23        -8.6367   -1.9655   52.1331 N.2     1  ZINC000672622940   -0.2800
     24 N24        -7.4218   -1.6805   51.8234 N.2     1  ZINC000672622940   -0.2800
     25 C25        -7.2192   -0.3986   51.9754 C.2     1  ZINC000672622940    0.1500
     26 C26        -6.1646    0.6783   51.8391 C.3     1  ZINC000672622940   -0.0400
     27 C27        -6.9665    1.9998   51.8454 C.3     1  ZINC000672622940   -0.1300
     28 C28        -8.2430    1.5913   52.6126 C.3     1  ZINC000672622940    0.1000
     29 N29        -8.3806    0.1449   52.4029 N.pl3   1  ZINC000672622940   -0.4900
     30 C30       -11.5594   -1.7192   52.0795 C.3     1  ZINC000672622940   -0.1200
     31 C31       -13.0214   -1.5965   52.5033 C.3     1  ZINC000672622940    0.1100
     32 C32       -14.0858   -1.4755   58.8310 C.3     1  ZINC000672622940   -0.1100
     33 H33       -11.8257   -3.1074   61.9953 H       1  ZINC000672622940    0.0600
     34 H34       -12.0359   -2.8213   60.2512 H       1  ZINC000672622940    0.0800
     35 H35       -10.4871   -2.4310   61.0367 H       1  ZINC000672622940    0.0700
     36 H36       -10.6007    0.4165   61.4173 H       1  ZINC000672622940    0.0600
     37 H37       -11.8065    0.5501   62.7199 H       1  ZINC000672622940    0.0800
     38 H38       -10.5234   -0.6797   62.8176 H       1  ZINC000672622940    0.0700
     39 H39       -15.6919   -1.6921   61.8725 H       1  ZINC000672622940    0.0800
     40 H40       -15.9490   -0.5072   60.5692 H       1  ZINC000672622940    0.0700
     41 H41       -16.2039   -3.5367   60.2966 H       1  ZINC000672622940    0.0700
     42 H42       -17.5581   -2.3858   60.3945 H       1  ZINC000672622940    0.0700
     43 H43       -17.0762   -2.9949   58.0396 H       1  ZINC000672622940    0.0700
     44 H44       -16.7574   -1.2681   58.3309 H       1  ZINC000672622940    0.0700
     45 H45       -15.4379   -1.5564   56.2403 H       1  ZINC000672622940    0.4100
     46 H46       -12.5728   -0.0057   54.8232 H       1  ZINC000672622940    0.0700
     47 H47       -12.3785   -1.4329   55.8734 H       1  ZINC000672622940    0.1400
     48 H48       -10.1870   -0.5342   55.0121 H       1  ZINC000672622940    0.0800
     49 H49       -10.4910   -2.2200   54.5265 H       1  ZINC000672622940    0.0800
     50 H50       -11.0508    0.2422   52.8110 H       1  ZINC000672622940    0.0900
     51 H51        -5.4756    0.6464   52.6832 H       1  ZINC000672622940    0.1000
     52 H52        -5.6234    0.5652   50.8996 H       1  ZINC000672622940    0.1000
     53 H53        -6.4251    2.7819   52.3776 H       1  ZINC000672622940    0.1100
     54 H54        -7.2061    2.3153   50.8298 H       1  ZINC000672622940    0.0900
     55 H55        -8.1320    1.8136   53.6740 H       1  ZINC000672622940    0.1000
     56 H56        -9.1098    2.1124   52.2062 H       1  ZINC000672622940    0.1000
     57 H57       -11.4595   -1.4461   51.0290 H       1  ZINC000672622940    0.0800
     58 H58       -11.2273   -2.7477   52.2215 H       1  ZINC000672622940    0.0800
     59 H59       -13.6205   -2.3319   51.9662 H       1  ZINC000672622940    0.1000
     60 H60       -13.3838   -0.5932   52.2793 H       1  ZINC000672622940    0.0800
     61 H61       -14.4089   -0.4598   58.6024 H       1  ZINC000672622940    0.0800
     62 H62       -13.0547   -1.6107   58.5045 H       1  ZINC000672622940    0.0800
@<TRIPOS>BOND
     1     1     2    1
     2     1    33    1
     3     1    34    1
     4     1    35    1
     5     2     3    1
     6     2     4   am
     7     3    36    1
     8     3    37    1
     9     3    38    1
    10     4     5    2
    11     4     6    1
    12     6     7    1
    13     6    32    1
    14     6     8    1
    15     8     9    1
    16     8    39    1
    17     8    40    1
    18     9    10    1
    19     9    41    1
    20     9    42    1
    21    10    11    1
    22    10    43    1
    23    10    44    1
    24    11    12    1
    25    11    13    1
    26    11    32    1
    27    13    14   am
    28    13    45    1
    29    14    15    2
    30    14    16    1
    31    16    17    2
    32    16    18   am
    33    18    31    1
    34    18    19    1
    35    19    20    1
    36    19    46    1
    37    19    47    1
    38    20    21    1
    39    20    48    1
    40    20    49    1
    41    21    22    1
    42    21    30    1
    43    21    50    1
    44    22    29    1
    45    22    23    2
    46    23    24    1
    47    24    25    2
    48    25    29    1
    49    25    26    1
    50    26    27    1
    51    26    51    1
    52    26    52    1
    53    27    28    1
    54    27    53    1
    55    27    54    1
    56    28    29    1
    57    28    55    1
    58    28    56    1
    59    30    31    1
    60    30    57    1
    61    30    58    1
    62    31    59    1
    63    31    60    1
    64    32    61    1
    65    32    62    1
@<TRIPOS>SUBSTRUCTURE
     1 ZINC000672622940        1 TEMP              0 ****  ****    0 ROOT


##########                                Name:    ZINC000499369364
##########                DOCK_Rotatable_Bonds:                   9
##########                         Heavy_Atoms:                  25
##########                    Molecular_Weight:             384.527
##########                DOCK_Rotatable_Bonds:                   9
##########                       Formal_Charge:        -5.88596e-07
##########                     HBond_Acceptors:                  10
##########                        HBond_Donors:                   1
##########                         Heavy_Atoms:                  25
##########                          Grid_Score:          -34.356445
##########                     Grid_vdw_energy:          -33.784546
##########                      Grid_es_energy:           -0.571901
##########           Internal_energy_repulsive:           21.377584

@<TRIPOS>MOLECULE
ZINC000499369364
 49 51 1 0 0
SMALL
USER_CHARGES


@<TRIPOS>ATOM
      1 C1        -10.1207    0.2017   58.4334 C.3     1  ZINC000499369364   -0.1500
      2 C2        -11.1255   -0.3287   57.4087 C.3     1  ZINC000499369364   -0.1000
      3 C3        -10.7548    0.1871   56.0168 C.3     1  ZINC000499369364   -0.1500
      4 C4        -11.0962   -1.8584   57.4103 C.3     1  ZINC000499369364    0.1500
      5 H5        -10.0677   -2.2023   57.3011 H       1  ZINC000499369364    0.0900
      6 C6        -11.6703   -2.3781   58.7298 C.3     1  ZINC000499369364   -0.1700
      7 N7        -11.9011   -2.3633   56.2951 N.am    1  ZINC000499369364   -0.7200
      8 C8        -11.7649   -3.6417   55.8904 C.2     1  ZINC000499369364    0.5100
      9 O9        -10.9773   -4.3745   56.4504 O.2     1  ZINC000499369364   -0.5100
     10 C10       -12.5914   -4.1607   54.7421 C.3     1  ZINC000499369364    0.1200
     11 H11       -12.2231   -5.1483   54.4647 H       1  ZINC000499369364    0.1200
     12 C12       -14.0602   -4.2902   55.2058 C.3     1  ZINC000499369364   -0.0800
     13 S13       -14.7833   -2.7244   54.5585 S.3     1  ZINC000499369364   -0.2400
     14 C14       -13.6750   -2.6721   53.0897 C.3     1  ZINC000499369364    0.1400
     15 N15       -12.4295   -3.2651   53.6069 N.am    1  ZINC000499369364   -0.6000
     16 C16       -11.2238   -3.0001   53.0661 C.2     1  ZINC000499369364    0.5600
     17 O17       -10.2263   -3.5138   53.5267 O.2     1  ZINC000499369364   -0.5000
     18 C18       -11.1150   -2.0655   51.8889 C.3     1  ZINC000499369364   -0.1500
     19 S19       -10.4845   -0.4633   52.4469 S.3     1  ZINC000499369364    0.1300
     20 C20        -8.7605   -0.6996   52.1699 C.2     1  ZINC000499369364    0.2000
     21 N21        -8.1618   -1.8386   51.8966 N.2     1  ZINC000499369364   -0.3400
     22 N22        -6.8983   -1.6592   51.7526 N.2     1  ZINC000499369364   -0.0300
     23 N23        -6.6002   -0.4163   51.9198 N.2     1  ZINC000499369364   -0.0800
     24 N24        -7.8034    0.2578   52.1925 N.pl3   1  ZINC000499369364   -0.3300
     25 C25        -7.9821    1.6881   52.4540 C.3     1  ZINC000499369364    0.0500
     26 C26        -7.9557    2.1482   53.9130 C.3     1  ZINC000499369364   -0.1500
     27 C27        -6.7773    2.4643   52.9897 C.3     1  ZINC000499369364   -0.1600
     28 H28       -10.1415    1.2915   58.4323 H       1  ZINC000499369364    0.0600
     29 H29       -10.3848   -0.1658   59.4250 H       1  ZINC000499369364    0.0600
     30 H30        -9.1199   -0.1429   58.1730 H       1  ZINC000499369364    0.0600
     31 H31       -12.1263    0.0159   57.6692 H       1  ZINC000499369364    0.0800
     32 H32       -10.7756    1.2769   56.0156 H       1  ZINC000499369364    0.0600
     33 H33        -9.7540   -0.1575   55.7563 H       1  ZINC000499369364    0.0600
     34 H34       -11.4705   -0.1908   55.2867 H       1  ZINC000499369364    0.0500
     35 H35       -12.6989   -2.0342   58.8391 H       1  ZINC000499369364    0.0600
     36 H36       -11.6495   -3.4679   58.7310 H       1  ZINC000499369364    0.0600
     37 H37       -11.0716   -2.0024   59.5596 H       1  ZINC000499369364    0.0700
     38 H38       -12.5319   -1.7776   55.8480 H       1  ZINC000499369364    0.4000
     39 H39       -14.5386   -5.1588   54.7531 H       1  ZINC000499369364    0.1200
     40 H40       -14.1254   -4.3315   56.2930 H       1  ZINC000499369364    0.1300
     41 H41       -14.0822   -3.2727   52.2764 H       1  ZINC000499369364    0.1100
     42 H42       -13.5088   -1.6442   52.7671 H       1  ZINC000499369364    0.1200
     43 H43       -10.4323   -2.4878   51.1515 H       1  ZINC000499369364    0.1300
     44 H44       -12.0988   -1.9320   51.4388 H       1  ZINC000499369364    0.1300
     45 H45        -8.6548    2.2100   51.7735 H       1  ZINC000499369364    0.1600
     46 H46        -8.6113    2.9729   54.1926 H       1  ZINC000499369364    0.1200
     47 H47        -7.8054    1.3867   54.6782 H       1  ZINC000499369364    0.1200
     48 H48        -5.8517    1.9106   53.1476 H       1  ZINC000499369364    0.1100
     49 H49        -6.6576    3.4969   52.6619 H       1  ZINC000499369364    0.1200
@<TRIPOS>BOND
     1     1     2    1
     2     1    28    1
     3     1    29    1
     4     1    30    1
     5     2     3    1
     6     2     4    1
     7     2    31    1
     8     3    32    1
     9     3    33    1
    10     3    34    1
    11     4     5    1
    12     4     6    1
    13     4     7    1
    14     6    35    1
    15     6    36    1
    16     6    37    1
    17     7     8   am
    18     7    38    1
    19     8     9    2
    20     8    10    1
    21    10    11    1
    22    10    15    1
    23    10    12    1
    24    12    13    1
    25    12    39    1
    26    12    40    1
    27    13    14    1
    28    14    15    1
    29    14    41    1
    30    14    42    1
    31    15    16   am
    32    16    17    2
    33    16    18    1
    34    18    19    1
    35    18    43    1
    36    18    44    1
    37    19    20    1
    38    20    24    1
    39    20    21    2
    40    21    22    1
    41    22    23    2
    42    23    24    1
    43    24    25    1
    44    25    27    1
    45    25    26    1
    46    25    45    1
    47    26    27    1
    48    26    46    1
    49    26    47    1
    50    27    48    1
    51    27    49    1
@<TRIPOS>SUBSTRUCTURE
     1 ZINC000499369364        1 TEMP              0 ****  ****    0 ROOT


##########                                Name:    ZINC001362587626
##########                DOCK_Rotatable_Bonds:                   9
##########                         Heavy_Atoms:                  25
##########                    Molecular_Weight:             346.346
##########                DOCK_Rotatable_Bonds:                   9
##########                       Formal_Charge:        -4.02331e-07
##########                     HBond_Acceptors:                  10
##########                        HBond_Donors:                   2
##########                         Heavy_Atoms:                  25
##########                          Grid_Score:          -34.342770
##########                     Grid_vdw_energy:          -33.335056
##########                      Grid_es_energy:           -1.007712
##########           Internal_energy_repulsive:            6.035607

@<TRIPOS>MOLECULE
ZINC001362587626
 43 45 1 0 0
SMALL
USER_CHARGES


@<TRIPOS>ATOM
      1 C1        -11.7651   -1.9383   51.6486 C.3     1  ZINC001362587626   -0.1600
      2 C2        -10.7611   -2.3198   52.7382 C.3     1  ZINC001362587626    0.1300
      3 H3        -10.3286   -3.2937   52.5087 H       1  ZINC001362587626    0.1200
      4 N4        -11.4451   -2.3820   54.0323 N.am    1  ZINC001362587626   -0.7100
      5 C5        -12.0906   -3.5066   54.3999 C.2     1  ZINC001362587626    0.5100
      6 O6        -12.1040   -4.4675   53.6602 O.2     1  ZINC001362587626   -0.5000
      7 C7        -12.7957   -3.5699   55.7304 C.3     1  ZINC001362587626    0.1000
      8 N8        -11.8109   -3.7744   56.7956 N.pl3   1  ZINC001362587626   -0.3100
      9 C9        -11.1591   -2.8139   57.4768 C.2     1  ZINC001362587626    0.1600
     10 N10       -10.3767   -3.4247   58.3328 N.2     1  ZINC001362587626   -0.3000
     11 N11       -10.5396   -4.6941   58.1851 N.2     1  ZINC001362587626   -0.0700
     12 N12       -11.4096   -4.9089   57.2608 N.2     1  ZINC001362587626   -0.0700
     13 C13        -9.6669   -1.2855   52.7975 C.2     1  ZINC001362587626    0.5100
     14 O14        -9.5799   -0.5490   53.7575 O.2     1  ZINC001362587626   -0.5200
     15 N15        -8.7849   -1.1785   51.7840 N.am    1  ZINC001362587626   -0.6600
     16 C16        -7.7676   -0.2168   51.8392 C.ar    1  ZINC001362587626    0.1000
     17 C17        -8.0897    1.1294   51.9489 C.ar    1  ZINC001362587626   -0.1000
     18 C18        -7.0866    2.0767   52.0037 C.ar    1  ZINC001362587626   -0.1900
     19 C19        -5.7573    1.6838   51.9488 C.ar    1  ZINC001362587626    0.1200
     20 O20        -4.7700    2.6172   52.0024 O.3     1  ZINC001362587626   -0.2800
     21 C21        -4.4047    3.1016   53.2963 C.3     1  ZINC001362587626    0.0100
     22 C22        -2.9235    2.8715   53.6511 C.3     1  ZINC001362587626    0.0200
     23 O23        -2.7028    4.1811   53.0900 O.3     1  ZINC001362587626   -0.3700
     24 C24        -4.0614    4.6029   53.3244 C.3     1  ZINC001362587626    0.0400
     25 C25        -5.4347    0.3390   51.8397 C.ar    1  ZINC001362587626   -0.1300
     26 C26        -6.4368   -0.6098   51.7901 C.ar    1  ZINC001362587626   -0.0800
     27 H27       -12.1978   -0.9645   51.8781 H       1  ZINC001362587626    0.0700
     28 H28       -11.2563   -1.8920   50.6858 H       1  ZINC001362587626    0.0800
     29 H29       -12.5566   -2.6865   51.6056 H       1  ZINC001362587626    0.0800
     30 H30       -11.4333   -1.6139   54.6245 H       1  ZINC001362587626    0.4100
     31 H31       -13.3294   -2.6355   55.9036 H       1  ZINC001362587626    0.1500
     32 H32       -13.5044   -4.3980   55.7269 H       1  ZINC001362587626    0.1400
     33 H33       -11.2605   -1.7469   57.3436 H       1  ZINC001362587626    0.2400
     34 H34        -8.8545   -1.7674   51.0165 H       1  ZINC001362587626    0.4100
     35 H35        -9.1245    1.4354   51.9909 H       1  ZINC001362587626    0.1300
     36 H36        -7.3369    3.1239   52.0889 H       1  ZINC001362587626    0.1400
     37 H37        -5.0994    2.7941   54.0779 H       1  ZINC001362587626    0.0900
     38 H38        -2.7307    2.8124   54.7223 H       1  ZINC001362587626    0.1000
     39 H39        -2.4550    2.0653   53.0867 H       1  ZINC001362587626    0.1000
     40 H40        -4.4953    5.1700   52.5008 H       1  ZINC001362587626    0.1000
     41 H41        -4.2161    5.0726   54.2957 H       1  ZINC001362587626    0.1000
     42 H42        -4.3996    0.0338   51.7971 H       1  ZINC001362587626    0.1400
     43 H43        -6.1856   -1.6568   51.7056 H       1  ZINC001362587626    0.1500
@<TRIPOS>BOND
     1     1     2    1
     2     1    27    1
     3     1    28    1
     4     1    29    1
     5     2     3    1
     6     2     4    1
     7     2    13    1
     8     4     5   am
     9     4    30    1
    10     5     6    2
    11     5     7    1
    12     7     8    1
    13     7    31    1
    14     7    32    1
    15     8    12    1
    16     8     9    1
    17     9    10    2
    18     9    33    1
    19    10    11    1
    20    11    12    2
    21    13    14    2
    22    13    15   am
    23    15    16    1
    24    15    34    1
    25    16    26   ar
    26    16    17   ar
    27    17    18   ar
    28    17    35    1
    29    18    19   ar
    30    18    36    1
    31    19    20    1
    32    19    25   ar
    33    20    21    1
    34    21    24    1
    35    21    22    1
    36    21    37    1
    37    22    23    1
    38    22    38    1
    39    22    39    1
    40    23    24    1
    41    24    40    1
    42    24    41    1
    43    25    26   ar
    44    25    42    1
    45    26    43    1
@<TRIPOS>SUBSTRUCTURE
     1 ZINC001362587626        1 TEMP              0 ****  ****    0 ROOT


##########                                Name:    ZINC000637608314
##########                DOCK_Rotatable_Bonds:                   9
##########                         Heavy_Atoms:                  28
##########                    Molecular_Weight:             387.479
##########                DOCK_Rotatable_Bonds:                   9
##########                       Formal_Charge:           0.0499991
##########                     HBond_Acceptors:                   7
##########                        HBond_Donors:                   2
##########                         Heavy_Atoms:                  28
##########                          Grid_Score:          -34.321583
##########                     Grid_vdw_energy:          -33.041073
##########                      Grid_es_energy:           -1.280509
##########           Internal_energy_repulsive:           14.479028

@<TRIPOS>MOLECULE
ZINC000637608314
 57 59 1 0 0
SMALL
USER_CHARGES


@<TRIPOS>ATOM
      1 C1        -12.4558   -1.6143   52.1823 C.3     1  ZINC000637608314   -0.1400
      2 C2        -11.3405   -2.0001   53.1561 C.3     1  ZINC000637608314   -0.0400
      3 C3        -11.7285   -1.5701   54.5722 C.3     1  ZINC000637608314   -0.1500
      4 C4        -11.1353   -3.5159   53.1216 C.3     1  ZINC000637608314   -0.1500
      5 C5        -10.0620   -1.3109   52.7544 C.2     1  ZINC000637608314    0.1900
      6 C6         -9.9971    0.0410   52.7688 C.2     1  ZINC000637608314   -0.2400
      7 C7         -8.8109    0.6887   52.3963 C.2     1  ZINC000637608314    0.0200
      8 C8         -7.7325   -0.0580   52.0223 C.2     1  ZINC000637608314   -0.2400
      9 C9         -6.4452    0.6129   51.6178 C.3     1  ZINC000637608314    0.2100
     10 N10        -6.1781    1.7390   52.5160 N.am    1  ZINC000637608314   -0.7300
     11 C11        -4.9783    2.3525   52.4893 C.2     1  ZINC000637608314    0.7100
     12 O12        -4.1172    1.9704   51.7208 O.2     1  ZINC000637608314   -0.5900
     13 N13        -4.7332    3.3894   53.3146 N.am    1  ZINC000637608314   -0.6200
     14 C14        -5.7702    3.8487   54.2419 C.3     1  ZINC000637608314    0.2000
     15 C15        -6.6931    4.8041   53.5302 C.2     1  ZINC000637608314   -0.0400
     16 C16        -6.4711    6.1170   53.3392 C.2     1  ZINC000637608314   -0.1900
     17 C17        -7.5861    6.6223   52.6318 C.2     1  ZINC000637608314   -0.2200
     18 C18        -8.4228    5.5879   52.4328 C.2     1  ZINC000637608314   -0.0300
     19 O19        -7.8740    4.4881   52.9741 O.3     1  ZINC000637608314   -0.1700
     20 C20        -3.4297    4.0574   53.2843 C.3     1  ZINC000637608314    0.1300
     21 C21        -2.4319    3.2675   54.1335 C.3     1  ZINC000637608314    0.0700
     22 H22        -2.5892    2.1985   53.9900 H       1  ZINC000637608314    0.0900
     23 C23        -2.6119    3.6279   55.6238 C.3     1  ZINC000637608314   -0.1500
     24 C24        -1.1452    3.6665   56.1330 C.3     1  ZINC000637608314   -0.1600
     25 C25        -0.4130    4.2094   54.8801 C.3     1  ZINC000637608314    0.0500
     26 O26        -1.0935    3.6160   53.7606 O.3     1  ZINC000637608314   -0.3800
     27 C27        -7.8343   -1.4597   52.0188 C.2     1  ZINC000637608314    0.5300
     28 O28        -6.8768   -2.1400   51.6868 O.2     1  ZINC000637608314   -0.5400
     29 N29        -8.9858   -2.0526   52.3872 N.am    1  ZINC000637608314   -0.6000
     30 H30       -12.6021   -0.5344   52.2069 H       1  ZINC000637608314    0.0700
     31 H31       -12.1793   -1.9207   51.1735 H       1  ZINC000637608314    0.0700
     32 H32       -13.3805   -2.1129   52.4729 H       1  ZINC000637608314    0.0700
     33 H33       -12.6532   -2.0687   54.8628 H       1  ZINC000637608314    0.0700
     34 H34       -10.9340   -1.8451   55.2660 H       1  ZINC000637608314    0.0600
     35 H35       -11.8748   -0.4903   54.5968 H       1  ZINC000637608314    0.0700
     36 H36       -10.8588   -3.8223   52.1128 H       1  ZINC000637608314    0.0700
     37 H37       -10.3407   -3.7908   53.8154 H       1  ZINC000637608314    0.0600
     38 H38       -12.0600   -4.0145   53.4122 H       1  ZINC000637608314    0.0700
     39 H39       -10.8586    0.6203   53.0667 H       1  ZINC000637608314    0.1500
     40 H40        -8.7518    1.7671   52.4050 H       1  ZINC000637608314    0.1400
     41 H41        -5.6265   -0.1040   51.6806 H       1  ZINC000637608314    0.0800
     42 H42        -6.5314    0.9773   50.5941 H       1  ZINC000637608314    0.0800
     43 H43        -6.8648    2.0431   53.1300 H       1  ZINC000637608314    0.4000
     44 H44        -6.3408    2.9926   54.6019 H       1  ZINC000637608314    0.1200
     45 H45        -5.3037    4.3555   55.0866 H       1  ZINC000637608314    0.0900
     46 H46        -5.6072    6.6777   53.6643 H       1  ZINC000637608314    0.1500
     47 H47        -7.7373    7.6429   52.3127 H       1  ZINC000637608314    0.1500
     48 H48        -9.3727    5.6334   51.9211 H       1  ZINC000637608314    0.2000
     49 H49        -3.0714    4.1082   52.2561 H       1  ZINC000637608314    0.0800
     50 H50        -3.5290    5.0663   53.6847 H       1  ZINC000637608314    0.1000
     51 H51        -3.0861    4.6034   55.7324 H       1  ZINC000637608314    0.0800
     52 H52        -3.1827    2.8580   56.1429 H       1  ZINC000637608314    0.0900
     53 H53        -1.0399    4.3492   56.9763 H       1  ZINC000637608314    0.0800
     54 H54        -0.7929    2.6680   56.3920 H       1  ZINC000637608314    0.0800
     55 H55        -0.4902    5.2959   54.8381 H       1  ZINC000637608314    0.0600
     56 H56         0.6333    3.9038   54.8912 H       1  ZINC000637608314    0.0800
     57 H57        -9.0496   -3.0205   52.3830 H       1  ZINC000637608314    0.4100
@<TRIPOS>BOND
     1     1     2    1
     2     1    30    1
     3     1    31    1
     4     1    32    1
     5     2     3    1
     6     2     4    1
     7     2     5    1
     8     3    33    1
     9     3    34    1
    10     3    35    1
    11     4    36    1
    12     4    37    1
    13     4    38    1
    14     5    29    1
    15     5     6    2
    16     6     7    1
    17     6    39    1
    18     7     8    2
    19     7    40    1
    20     8     9    1
    21     8    27    1
    22     9    10    1
    23     9    41    1
    24     9    42    1
    25    10    11   am
    26    10    43    1
    27    11    12    2
    28    11    13   am
    29    13    14    1
    30    13    20    1
    31    14    15    1
    32    14    44    1
    33    14    45    1
    34    15    19    1
    35    15    16    2
    36    16    17    1
    37    16    46    1
    38    17    18    2
    39    17    47    1
    40    18    19    1
    41    18    48    1
    42    20    21    1
    43    20    49    1
    44    20    50    1
    45    21    22    1
    46    21    26    1
    47    21    23    1
    48    23    24    1
    49    23    51    1
    50    23    52    1
    51    24    25    1
    52    24    53    1
    53    24    54    1
    54    25    26    1
    55    25    55    1
    56    25    56    1
    57    27    28    2
    58    27    29   am
    59    29    57    1
@<TRIPOS>SUBSTRUCTURE
     1 ZINC000637608314        1 TEMP              0 ****  ****    0 ROOT


##########                                Name:    ZINC001124460178
##########                DOCK_Rotatable_Bonds:                  12
##########                         Heavy_Atoms:                  22
##########                    Molecular_Weight:             328.479
##########                DOCK_Rotatable_Bonds:                  12
##########                       Formal_Charge:          -0.0100003
##########                     HBond_Acceptors:                   7
##########                        HBond_Donors:                   2
##########                         Heavy_Atoms:                  22
##########                          Grid_Score:          -34.288528
##########                     Grid_vdw_energy:          -34.505161
##########                      Grid_es_energy:            0.216632
##########           Internal_energy_repulsive:           15.539323

@<TRIPOS>MOLECULE
ZINC001124460178
 50 50 1 0 0
SMALL
USER_CHARGES


@<TRIPOS>ATOM
      1 C1         -6.3034    2.2011   52.7887 C.3     1  ZINC001124460178   -0.0700
      2 C2         -6.9572    0.9090   52.3714 C.2     1  ZINC001124460178    0.3100
      3 N3         -6.2484   -0.0936   51.9406 N.2     1  ZINC001124460178   -0.5000
      4 S4         -7.3620   -1.3272   51.5850 S.3     1  ZINC001124460178    0.1800
      5 C5         -8.7418   -0.4037   52.0456 C.2     1  ZINC001124460178    0.3400
      6 N6        -10.0671   -0.7986   52.0169 N.pl3   1  ZINC001124460178   -0.6600
      7 C7        -10.4066   -2.2235   51.9901 C.3     1  ZINC001124460178    0.0900
      8 C8        -11.6117   -2.4778   52.8977 C.3     1  ZINC001124460178    0.0800
      9 H9        -11.6536   -1.7096   53.6699 H       1  ZINC001124460178    0.1200
     10 O10       -12.8102   -2.4378   52.1205 O.3     1  ZINC001124460178   -0.5500
     11 C11       -11.4748   -3.8533   53.5536 C.3     1  ZINC001124460178    0.0900
     12 N12       -12.1241   -3.8349   54.8668 N.am    1  ZINC001124460178   -0.6100
     13 C13       -13.5464   -4.1654   54.9855 C.3     1  ZINC001124460178    0.0800
     14 C14       -11.4130   -3.5138   55.9657 C.2     1  ZINC001124460178    0.5100
     15 O15       -10.2359   -3.2386   55.8673 O.2     1  ZINC001124460178   -0.5400
     16 C16       -12.0804   -3.4966   57.3167 C.3     1  ZINC001124460178   -0.1400
     17 C17       -11.0209   -3.3224   58.4068 C.3     1  ZINC001124460178   -0.1100
     18 C18       -10.6757   -1.8387   58.5500 C.3     1  ZINC001124460178   -0.1200
     19 C19        -9.7423   -1.6456   59.7468 C.3     1  ZINC001124460178   -0.1200
     20 C20        -9.5645   -0.1505   60.0188 C.3     1  ZINC001124460178   -0.1000
     21 C21        -8.8072    0.0420   61.3342 C.3     1  ZINC001124460178   -0.1500
     22 C22        -8.7708    0.4850   58.8756 C.3     1  ZINC001124460178   -0.1500
     23 N23        -8.2597    0.7573   52.4359 N.2     1  ZINC001124460178   -0.5800
     24 H24        -6.0568    2.1575   53.8495 H       1  ZINC001124460178    0.0900
     25 H25        -5.3920    2.3507   52.2098 H       1  ZINC001124460178    0.0900
     26 H26        -6.9883    3.0297   52.6087 H       1  ZINC001124460178    0.0900
     27 H27       -10.7718   -0.1320   52.0145 H       1  ZINC001124460178    0.4200
     28 H28       -10.6510   -2.5197   50.9700 H       1  ZINC001124460178    0.0800
     29 H29        -9.5560   -2.8063   52.3437 H       1  ZINC001124460178    0.0900
     30 H30       -13.3428   -1.6428   52.2595 H       1  ZINC001124460178    0.3800
     31 H31       -11.9503   -4.6051   52.9238 H       1  ZINC001124460178    0.0900
     32 H32       -10.4189   -4.0950   53.6738 H       1  ZINC001124460178    0.1000
     33 H33       -13.6578   -5.2375   55.1481 H       1  ZINC001124460178    0.0600
     34 H34       -13.9763   -3.6235   55.8279 H       1  ZINC001124460178    0.0800
     35 H35       -14.0631   -3.8813   54.0688 H       1  ZINC001124460178    0.0800
     36 H36       -12.7878   -2.6686   57.3621 H       1  ZINC001124460178    0.0900
     37 H37       -12.6105   -4.4362   57.4721 H       1  ZINC001124460178    0.0900
     38 H38       -11.4087   -3.6982   59.3537 H       1  ZINC001124460178    0.0700
     39 H39       -10.1245   -3.8795   58.1346 H       1  ZINC001124460178    0.0700
     40 H40       -10.1803   -1.4919   57.6431 H       1  ZINC001124460178    0.0600
     41 H41       -11.5900   -1.2664   58.7062 H       1  ZINC001124460178    0.0600
     42 H42       -10.1734   -2.1260   60.6251 H       1  ZINC001124460178    0.0600
     43 H43        -8.7727   -2.0927   59.5273 H       1  ZINC001124460178    0.0600
     44 H44       -10.5429    0.3247   60.0900 H       1  ZINC001124460178    0.0700
     45 H45        -7.8288   -0.4332   61.2631 H       1  ZINC001124460178    0.0500
     46 H46        -8.6806    1.1072   61.5281 H       1  ZINC001124460178    0.0500
     47 H47        -9.3726   -0.4107   62.1487 H       1  ZINC001124460178    0.0500
     48 H48        -9.3103    0.3479   57.9385 H       1  ZINC001124460178    0.0600
     49 H49        -8.6442    1.5502   59.0694 H       1  ZINC001124460178    0.0500
     50 H50        -7.7924    0.0099   58.8044 H       1  ZINC001124460178    0.0500
@<TRIPOS>BOND
     1     1     2    1
     2     1    24    1
     3     1    25    1
     4     1    26    1
     5     2    23    1
     6     2     3    2
     7     3     4    1
     8     4     5    1
     9     5     6    1
    10     5    23    2
    11     6     7    1
    12     6    27    1
    13     7     8    1
    14     7    28    1
    15     7    29    1
    16     8     9    1
    17     8    10    1
    18     8    11    1
    19    10    30    1
    20    11    12    1
    21    11    31    1
    22    11    32    1
    23    12    13    1
    24    12    14   am
    25    13    33    1
    26    13    34    1
    27    13    35    1
    28    14    15    2
    29    14    16    1
    30    16    17    1
    31    16    36    1
    32    16    37    1
    33    17    18    1
    34    17    38    1
    35    17    39    1
    36    18    19    1
    37    18    40    1
    38    18    41    1
    39    19    20    1
    40    19    42    1
    41    19    43    1
    42    20    21    1
    43    20    22    1
    44    20    44    1
    45    21    45    1
    46    21    46    1
    47    21    47    1
    48    22    48    1
    49    22    49    1
    50    22    50    1
@<TRIPOS>SUBSTRUCTURE
     1 ZINC001124460178        1 TEMP              0 ****  ****    0 ROOT


##########                                Name:    ZINC000671418508
##########                DOCK_Rotatable_Bonds:                   9
##########                         Heavy_Atoms:                  28
##########                    Molecular_Weight:             405.884
##########                DOCK_Rotatable_Bonds:                   9
##########                       Formal_Charge:         -1.3411e-07
##########                     HBond_Acceptors:                   9
##########                        HBond_Donors:                   2
##########                         Heavy_Atoms:                  28
##########                          Grid_Score:          -34.271595
##########                     Grid_vdw_energy:          -34.255039
##########                      Grid_es_energy:           -0.016556
##########           Internal_energy_repulsive:           16.799124

@<TRIPOS>MOLECULE
ZINC000671418508
 52 54 1 0 0
SMALL
USER_CHARGES


@<TRIPOS>ATOM
      1 C1         -9.3424    2.1377   59.4687 C.3     1  ZINC000671418508    0.1000
      2 N2         -9.5259    0.6904   59.6039 N.pl3   1  ZINC000671418508   -0.3700
      3 C3        -10.6674    0.0647   59.9598 C.2     1  ZINC000671418508    0.0800
      4 C4        -10.4228   -1.2661   59.9684 C.2     1  ZINC000671418508   -0.2700
      5 C5        -11.4155   -2.3479   60.3083 C.3     1  ZINC000671418508    0.2000
      6 N6        -12.1601   -2.7232   59.1038 N.am    1  ZINC000671418508   -0.6900
      7 C7        -11.6969   -3.7039   58.3036 C.2     1  ZINC000671418508    0.5100
      8 O8        -10.6626   -4.2750   58.5801 O.2     1  ZINC000671418508   -0.5100
      9 C9        -12.4574   -4.0881   57.0758 C.2     1  ZINC000671418508    0.5100
     10 O10       -13.5023   -4.6971   57.1749 O.2     1  ZINC000671418508   -0.5200
     11 N11       -11.9828   -3.7580   55.8582 N.am    1  ZINC000671418508   -0.5800
     12 C12       -12.7184   -4.1209   54.6374 C.3     1  ZINC000671418508    0.0800
     13 C13       -12.8778   -2.8652   53.7738 C.3     1  ZINC000671418508    0.0400
     14 N14       -11.5587   -2.2598   53.5473 N.3     1  ZINC000671418508   -0.5200
     15 C15       -11.6453   -1.1539   52.5842 C.3     1  ZINC000671418508    0.1300
     16 H16       -12.3127   -0.3849   52.9731 H       1  ZINC000671418508    0.0600
     17 C17       -12.1909   -1.6776   51.2541 C.3     1  ZINC000671418508    0.0900
     18 O18       -13.5690   -1.3204   51.1309 O.3     1  ZINC000671418508   -0.5500
     19 C19       -10.2742   -0.5670   52.3686 C.ar    1  ZINC000671418508   -0.0800
     20 C20       -10.0783    0.7957   52.4942 C.ar    1  ZINC000671418508   -0.0600
     21 C21        -8.8210    1.3345   52.2965 C.ar    1  ZINC000671418508   -0.1200
     22 C22        -7.7582    0.5098   51.9729 C.ar    1  ZINC000671418508   -0.0300
     23 Cl23       -6.1787    1.1858   51.7250 Cl      1  ZINC000671418508   -0.0700
     24 C24        -7.9548   -0.8539   51.8474 C.ar    1  ZINC000671418508   -0.1200
     25 C25        -9.2115   -1.3922   52.0508 C.ar    1  ZINC000671418508   -0.1100
     26 C26       -10.9538   -1.8128   54.8092 C.3     1  ZINC000671418508    0.0400
     27 C27       -10.7186   -3.0201   55.7154 C.3     1  ZINC000671418508    0.1100
     28 C28        -9.0861   -1.4603   59.6054 C.2     1  ZINC000671418508    0.0700
     29 N29        -8.5491   -0.2885   59.3808 N.2     1  ZINC000671418508   -0.2900
     30 H30        -9.5785    2.4401   58.4484 H       1  ZINC000671418508    0.0800
     31 H31       -10.0049    2.6543   60.1633 H       1  ZINC000671418508    0.0900
     32 H32        -8.3075    2.3953   59.6938 H       1  ZINC000671418508    0.0900
     33 H33       -11.6076    0.5409   60.1959 H       1  ZINC000671418508    0.1800
     34 H34       -10.8857   -3.2188   60.6942 H       1  ZINC000671418508    0.0800
     35 H35       -12.1091   -1.9800   61.0644 H       1  ZINC000671418508    0.0800
     36 H36       -12.9863   -2.2660   58.8820 H       1  ZINC000671418508    0.4100
     37 H37       -12.1604   -4.8769   54.0849 H       1  ZINC000671418508    0.0800
     38 H38       -13.7014   -4.5092   54.9040 H       1  ZINC000671418508    0.1400
     39 H39       -13.3228   -3.1363   52.8165 H       1  ZINC000671418508    0.0900
     40 H40       -13.5227   -2.1510   54.2858 H       1  ZINC000671418508    0.0400
     41 H41       -11.6266   -1.2378   50.4317 H       1  ZINC000671418508    0.0500
     42 H42       -12.0925   -2.7627   51.2230 H       1  ZINC000671418508    0.0500
     43 H43       -13.7382   -0.3718   51.2123 H       1  ZINC000671418508    0.3800
     44 H44       -10.9080    1.4394   52.7465 H       1  ZINC000671418508    0.1400
     45 H45        -8.6681    2.3991   52.3943 H       1  ZINC000671418508    0.1300
     46 H46        -7.1258   -1.4981   51.5944 H       1  ZINC000671418508    0.1300
     47 H47        -9.3650   -2.4568   51.9533 H       1  ZINC000671418508    0.1300
     48 H48       -10.0034   -1.3206   54.6026 H       1  ZINC000671418508    0.0900
     49 H49       -11.6255   -1.1133   55.3067 H       1  ZINC000671418508    0.0400
     50 H50       -10.3773   -2.6823   56.6941 H       1  ZINC000671418508    0.1000
     51 H51        -9.9688   -3.6730   55.2684 H       1  ZINC000671418508    0.0800
     52 H52        -8.5851   -2.4133   59.5203 H       1  ZINC000671418508    0.1900
@<TRIPOS>BOND
     1     1     2    1
     2     1    30    1
     3     1    31    1
     4     1    32    1
     5     2    29    1
     6     2     3    1
     7     3     4    2
     8     3    33    1
     9     4     5    1
    10     4    28    1
    11     5     6    1
    12     5    34    1
    13     5    35    1
    14     6     7   am
    15     6    36    1
    16     7     8    2
    17     7     9    1
    18     9    10    2
    19     9    11   am
    20    11    27    1
    21    11    12    1
    22    12    13    1
    23    12    37    1
    24    12    38    1
    25    13    14    1
    26    13    39    1
    27    13    40    1
    28    14    15    1
    29    14    26    1
    30    15    16    1
    31    15    17    1
    32    15    19    1
    33    17    18    1
    34    17    41    1
    35    17    42    1
    36    18    43    1
    37    19    25   ar
    38    19    20   ar
    39    20    21   ar
    40    20    44    1
    41    21    22   ar
    42    21    45    1
    43    22    23    1
    44    22    24   ar
    45    24    25   ar
    46    24    46    1
    47    25    47    1
    48    26    27    1
    49    26    48    1
    50    26    49    1
    51    27    50    1
    52    27    51    1
    53    28    29    2
    54    28    52    1
@<TRIPOS>SUBSTRUCTURE
     1 ZINC000671418508        1 TEMP              0 ****  ****    0 ROOT


##########                                Name:    ZINC000031496632
##########                DOCK_Rotatable_Bonds:                   8
##########                         Heavy_Atoms:                  30
##########                    Molecular_Weight:             423.539
##########                DOCK_Rotatable_Bonds:                   8
##########                       Formal_Charge:          -0.0100009
##########                     HBond_Acceptors:                   8
##########                        HBond_Donors:                   1
##########                         Heavy_Atoms:                  30
##########                          Grid_Score:          -34.264996
##########                     Grid_vdw_energy:          -33.753315
##########                      Grid_es_energy:           -0.511682
##########           Internal_energy_repulsive:           10.665271

@<TRIPOS>MOLECULE
ZINC000031496632
 55 58 1 0 0
SMALL
USER_CHARGES


@<TRIPOS>ATOM
      1 C1          2.4668   -0.2253   47.1700 C.3     1  ZINC000031496632   -0.1600
      2 C2          2.1825    1.0629   47.9451 C.3     1  ZINC000031496632    0.1600
      3 C3          2.6950    2.2626   47.1458 C.3     1  ZINC000031496632   -0.1600
      4 N4          0.7390    1.1974   48.1562 N.pl3   1  ZINC000031496632   -0.3900
      5 N5         -0.2430    1.0139   47.1779 N.2     1  ZINC000031496632   -0.2300
      6 C6         -1.4253    1.2069   47.6889 C.2     1  ZINC000031496632    0.0800
      7 C7         -1.2498    1.5422   49.0977 C.ar    1  ZINC000031496632   -0.2100
      8 C8         -2.1275    1.8495   50.1437 C.ar    1  ZINC000031496632    0.0100
      9 C9         -1.5848    2.1243   51.3892 C.ar    1  ZINC000031496632    0.0500
     10 N10        -2.4186    2.4374   52.4706 N.am    1  ZINC000031496632   -0.6600
     11 C11        -3.1185    3.5891   52.4706 C.2     1  ZINC000031496632    0.5500
     12 O12        -3.0262    4.3568   51.5318 O.2     1  ZINC000031496632   -0.4900
     13 C13        -3.9956    3.9184   53.6081 C.ar    1  ZINC000031496632   -0.1300
     14 C14        -3.6340    4.9258   54.5061 C.ar    1  ZINC000031496632   -0.0600
     15 C15        -4.4583    5.2288   55.5676 C.ar    1  ZINC000031496632   -0.1400
     16 C16        -5.6465    4.5391   55.7513 C.ar    1  ZINC000031496632   -0.0600
     17 C17        -6.0182    3.5413   54.8742 C.ar    1  ZINC000031496632   -0.1500
     18 C18        -5.2034    3.2254   53.7933 C.ar    1  ZINC000031496632   -0.0600
     19 S19        -5.6752    1.9520   52.6706 S.3     1  ZINC000031496632    0.0900
     20 C20        -7.1057    1.1950   53.4900 C.3     1  ZINC000031496632   -0.2000
     21 C21        -7.5495   -0.0151   52.7091 C.2     1  ZINC000031496632    0.5500
     22 O22        -6.7767   -0.5670   51.9547 O.2     1  ZINC000031496632   -0.5200
     23 N23        -8.8053   -0.4839   52.8490 N.am    1  ZINC000031496632   -0.6200
     24 C24        -9.3650   -1.6545   52.1577 C.3     1  ZINC000031496632    0.1000
     25 C25       -10.8347   -1.7931   52.6076 C.3     1  ZINC000031496632   -0.1300
     26 C26       -11.1861   -0.3617   53.0923 C.3     1  ZINC000031496632   -0.1300
     27 C27        -9.8434    0.0884   53.7256 C.3     1  ZINC000031496632    0.1000
     28 C28        -0.2014    2.0857   51.5553 C.ar    1  ZINC000031496632    0.1600
     29 N29         0.6022    1.7945   50.5564 N.ar    1  ZINC000031496632   -0.4900
     30 C30         0.1373    1.5170   49.3448 C.ar    1  ZINC000031496632    0.3000
     31 H31         3.5407   -0.3254   47.0129 H       1  ZINC000031496632    0.0800
     32 H32         2.1017   -1.0800   47.7394 H       1  ZINC000031496632    0.0600
     33 H33         1.9604   -0.1883   46.2055 H       1  ZINC000031496632    0.0700
     34 H34         2.6889    1.0258   48.9096 H       1  ZINC000031496632    0.1100
     35 H35         3.7690    2.1625   46.9887 H       1  ZINC000031496632    0.0800
     36 H36         2.1887    2.2997   46.1812 H       1  ZINC000031496632    0.0700
     37 H37         2.4925    3.1803   47.6979 H       1  ZINC000031496632    0.0600
     38 H38        -2.3663    1.1326   47.1640 H       1  ZINC000031496632    0.2000
     39 H39        -3.1955    1.8722   49.9850 H       1  ZINC000031496632    0.1500
     40 H40        -2.4923    1.8251   53.2194 H       1  ZINC000031496632    0.4100
     41 H41        -2.7091    5.4661   54.3686 H       1  ZINC000031496632    0.1300
     42 H42        -4.1770    6.0079   56.2607 H       1  ZINC000031496632    0.1300
     43 H43        -6.2854    4.7843   56.5869 H       1  ZINC000031496632    0.1300
     44 H44        -6.9454    3.0084   55.0248 H       1  ZINC000031496632    0.1300
     45 H45        -6.8283    0.8938   54.5001 H       1  ZINC000031496632    0.1100
     46 H46        -7.9213    1.9165   53.5368 H       1  ZINC000031496632    0.1100
     47 H47        -9.3202   -1.5043   51.0790 H       1  ZINC000031496632    0.0700
     48 H48        -8.8070   -2.5495   52.4330 H       1  ZINC000031496632    0.0700
     49 H49       -11.4688   -2.0831   51.7698 H       1  ZINC000031496632    0.0900
     50 H50       -10.9219   -2.5092   53.4247 H       1  ZINC000031496632    0.0800
     51 H51       -11.4605    0.2784   52.2538 H       1  ZINC000031496632    0.0800
     52 H52       -11.9796   -0.3860   53.8393 H       1  ZINC000031496632    0.0900
     53 H53        -9.7510   -0.3042   54.7382 H       1  ZINC000031496632    0.0700
     54 H54        -9.7725    1.1761   53.7316 H       1  ZINC000031496632    0.0800
     55 H55         0.2198    2.3001   52.5264 H       1  ZINC000031496632    0.1700
@<TRIPOS>BOND
     1     1     2    1
     2     1    31    1
     3     1    32    1
     4     1    33    1
     5     2     3    1
     6     2     4    1
     7     2    34    1
     8     3    35    1
     9     3    36    1
    10     3    37    1
    11     4    30    1
    12     4     5    1
    13     5     6    2
    14     6     7    1
    15     6    38    1
    16     7    30   ar
    17     7     8   ar
    18     8     9   ar
    19     8    39    1
    20     9    10    1
    21     9    28   ar
    22    10    11   am
    23    10    40    1
    24    11    12    2
    25    11    13    1
    26    13    18   ar
    27    13    14   ar
    28    14    15   ar
    29    14    41    1
    30    15    16   ar
    31    15    42    1
    32    16    17   ar
    33    16    43    1
    34    17    18   ar
    35    17    44    1
    36    18    19    1
    37    19    20    1
    38    20    21    1
    39    20    45    1
    40    20    46    1
    41    21    22    2
    42    21    23   am
    43    23    27    1
    44    23    24    1
    45    24    25    1
    46    24    47    1
    47    24    48    1
    48    25    26    1
    49    25    49    1
    50    25    50    1
    51    26    27    1
    52    26    51    1
    53    26    52    1
    54    27    53    1
    55    27    54    1
    56    28    29   ar
    57    28    55    1
    58    29    30   ar
@<TRIPOS>SUBSTRUCTURE
     1 ZINC000031496632        1 TEMP              0 ****  ****    0 ROOT


##########                                Name:    ZINC000790205345
##########                DOCK_Rotatable_Bonds:                   7
##########                         Heavy_Atoms:                  28
##########                    Molecular_Weight:             382.459
##########                DOCK_Rotatable_Bonds:                   7
##########                       Formal_Charge:          -0.0299997
##########                     HBond_Acceptors:                   6
##########                        HBond_Donors:                   0
##########                         Heavy_Atoms:                  28
##########                          Grid_Score:          -34.221237
##########                     Grid_vdw_energy:          -35.353638
##########                      Grid_es_energy:            1.132401
##########           Internal_energy_repulsive:           20.055645

@<TRIPOS>MOLECULE
ZINC000790205345
 54 56 1 0 0
SMALL
USER_CHARGES


@<TRIPOS>ATOM
      1 C1         -7.7207    2.2143   52.4229 C.3     1  ZINC000790205345   -0.1100
      2 C2         -8.4719    0.9087   52.4718 C.ar    1  ZINC000790205345   -0.1300
      3 C3         -9.8035    0.8923   52.8428 C.ar    1  ZINC000790205345   -0.0800
      4 C4        -10.4946   -0.3032   52.8880 C.ar    1  ZINC000790205345   -0.2100
      5 C5         -9.8512   -1.4877   52.5608 C.ar    1  ZINC000790205345    0.1300
      6 O6        -10.5288   -2.6650   52.6040 O.3     1  ZINC000790205345   -0.2900
      7 C7        -10.6066   -3.3225   53.8704 C.3     1  ZINC000790205345    0.0400
      8 C8        -12.0281   -3.7528   54.1264 C.2     1  ZINC000790205345    0.5200
      9 O9        -12.8159   -3.8213   53.2069 O.2     1  ZINC000790205345   -0.5100
     10 N10       -12.4238   -4.0614   55.3772 N.am    1  ZINC000790205345   -0.6100
     11 C11       -13.8052   -4.4815   55.6257 C.3     1  ZINC000790205345    0.0700
     12 C12       -11.4728   -3.9770   56.4883 C.3     1  ZINC000790205345    0.1800
     13 H13       -10.4567   -4.0699   56.1047 H       1  ZINC000790205345    0.1200
     14 C14       -11.7480   -5.1072   57.4821 C.3     1  ZINC000790205345   -0.1600
     15 C15       -11.6281   -2.6485   57.1827 C.ar    1  ZINC000790205345   -0.0700
     16 C16       -12.5634   -1.7372   56.7287 C.ar    1  ZINC000790205345   -0.1300
     17 C17       -12.7085   -0.5167   57.3629 C.ar    1  ZINC000790205345   -0.0900
     18 C18       -11.9194   -0.2051   58.4525 C.ar    1  ZINC000790205345   -0.1500
     19 C19       -10.9793   -1.1186   58.9112 C.ar    1  ZINC000790205345    0.1800
     20 N20       -10.1783   -0.8058   60.0155 N.am    1  ZINC000790205345   -0.5700
     21 C21       -10.6699   -0.4398   61.3526 C.3     1  ZINC000790205345    0.0600
     22 C22        -9.3822   -0.2043   62.1653 C.3     1  ZINC000790205345    0.0400
     23 O23        -8.3111   -0.4595   61.2110 O.3     1  ZINC000790205345   -0.3200
     24 C24        -8.8383   -0.7966   60.0286 C.2     1  ZINC000790205345    0.6400
     25 O25        -8.1639   -1.0622   59.0533 O.2     1  ZINC000790205345   -0.5000
     26 C26       -10.8396   -2.3450   58.2755 C.ar    1  ZINC000790205345   -0.1400
     27 C27        -8.5145   -1.4686   52.1887 C.ar    1  ZINC000790205345   -0.1500
     28 C28        -7.8296   -0.2702   52.1400 C.ar    1  ZINC000790205345   -0.0500
     29 C29        -6.3780   -0.2485   51.7355 C.3     1  ZINC000790205345   -0.1200
     30 H30        -7.8190    2.6529   51.4299 H       1  ZINC000790205345    0.0700
     31 H31        -8.1326    2.8984   53.1648 H       1  ZINC000790205345    0.0600
     32 H32        -6.6674    2.0356   52.6386 H       1  ZINC000790205345    0.0700
     33 H33       -10.3040    1.8148   53.0978 H       1  ZINC000790205345    0.1300
     34 H34       -11.5348   -0.3156   53.1783 H       1  ZINC000790205345    0.1300
     35 H35        -9.9572   -4.1980   53.8657 H       1  ZINC000790205345    0.1000
     36 H36       -10.2873   -2.6374   54.6558 H       1  ZINC000790205345    0.0900
     37 H37       -13.9004   -5.5499   55.4326 H       1  ZINC000790205345    0.0600
     38 H38       -14.0665   -4.2751   56.6636 H       1  ZINC000790205345    0.0800
     39 H39       -14.4764   -3.9318   54.9659 H       1  ZINC000790205345    0.0700
     40 H40       -12.7640   -5.0143   57.8658 H       1  ZINC000790205345    0.0600
     41 H41       -11.6356   -6.0681   56.9800 H       1  ZINC000790205345    0.0700
     42 H42       -11.0403   -5.0444   58.3088 H       1  ZINC000790205345    0.0800
     43 H43       -13.1817   -1.9786   55.8768 H       1  ZINC000790205345    0.1300
     44 H44       -13.4395    0.1934   57.0055 H       1  ZINC000790205345    0.1300
     45 H45       -12.0330    0.7483   58.9471 H       1  ZINC000790205345    0.1300
     46 H46       -11.2650    0.4721   61.3054 H       1  ZINC000790205345    0.1000
     47 H47       -11.2507   -1.2554   61.7834 H       1  ZINC000790205345    0.1000
     48 H48        -9.3385    0.8246   62.5224 H       1  ZINC000790205345    0.1100
     49 H49        -9.3242   -0.9024   63.0003 H       1  ZINC000790205345    0.1100
     50 H50       -10.1096   -3.0577   58.6300 H       1  ZINC000790205345    0.1600
     51 H51        -8.0113   -2.3895   51.9338 H       1  ZINC000790205345    0.1300
     52 H52        -6.3037   -0.1257   50.6550 H       1  ZINC000790205345    0.0700
     53 H53        -5.8751    0.5820   52.2310 H       1  ZINC000790205345    0.0700
     54 H54        -5.9054   -1.1862   52.0280 H       1  ZINC000790205345    0.0700
@<TRIPOS>BOND
     1     1     2    1
     2     1    30    1
     3     1    31    1
     4     1    32    1
     5     2    28   ar
     6     2     3   ar
     7     3     4   ar
     8     3    33    1
     9     4     5   ar
    10     4    34    1
    11     5     6    1
    12     5    27   ar
    13     6     7    1
    14     7     8    1
    15     7    35    1
    16     7    36    1
    17     8     9    2
    18     8    10   am
    19    10    11    1
    20    10    12    1
    21    11    37    1
    22    11    38    1
    23    11    39    1
    24    12    13    1
    25    12    14    1
    26    12    15    1
    27    14    40    1
    28    14    41    1
    29    14    42    1
    30    15    26   ar
    31    15    16   ar
    32    16    17   ar
    33    16    43    1
    34    17    18   ar
    35    17    44    1
    36    18    19   ar
    37    18    45    1
    38    19    20    1
    39    19    26   ar
    40    20    24   am
    41    20    21    1
    42    21    22    1
    43    21    46    1
    44    21    47    1
    45    22    23    1
    46    22    48    1
    47    22    49    1
    48    23    24    1
    49    24    25    2
    50    26    50    1
    51    27    28   ar
    52    27    51    1
    53    28    29    1
    54    29    52    1
    55    29    53    1
    56    29    54    1
@<TRIPOS>SUBSTRUCTURE
     1 ZINC000790205345        1 TEMP              0 ****  ****    0 ROOT


##########                                Name:    ZINC001070580102
##########                DOCK_Rotatable_Bonds:                   8
##########                         Heavy_Atoms:                  25
##########                    Molecular_Weight:              349.39
##########                DOCK_Rotatable_Bonds:                   8
##########                       Formal_Charge:          -0.0100003
##########                     HBond_Acceptors:                   9
##########                        HBond_Donors:                   3
##########                         Heavy_Atoms:                  25
##########                          Grid_Score:          -34.219631
##########                     Grid_vdw_energy:          -32.821968
##########                      Grid_es_energy:           -1.397663
##########           Internal_energy_repulsive:           14.746725

@<TRIPOS>MOLECULE
ZINC001070580102
 48 50 1 0 0
SMALL
USER_CHARGES


@<TRIPOS>ATOM
      1 C1         -7.1366   -1.7955   51.4393 C.3     1  ZINC001070580102   -0.0800
      2 C2         -6.7874   -0.3852   51.8394 C.2     1  ZINC001070580102   -0.0100
      3 C3         -5.5592    0.1536   51.7984 C.2     1  ZINC001070580102   -0.1900
      4 C4         -5.7081    1.5359   52.2765 C.2     1  ZINC001070580102   -0.2500
      5 C5         -4.6468    2.5485   52.4190 C.2     1  ZINC001070580102    0.6000
      6 O6         -4.8711    3.5846   53.0148 O.2     1  ZINC001070580102   -0.5300
      7 N7         -3.4277    2.3260   51.8892 N.am    1  ZINC001070580102   -0.7200
      8 C8         -2.3733    3.3334   52.0293 C.3     1  ZINC001070580102    0.2000
      9 C9         -1.1802    2.9304   51.2014 C.2     1  ZINC001070580102    0.2600
     10 N10        -0.9753    3.2409   49.9471 N.2     1  ZINC001070580102   -0.5100
     11 C11         0.1790    2.7184   49.5349 C.2     1  ZINC001070580102    0.2300
     12 C12         0.7589    2.8584   48.1511 C.3     1  ZINC001070580102    0.1400
     13 H13         1.7723    2.4572   48.1388 H       1  ZINC001070580102    0.0800
     14 C14         0.7900    4.3375   47.7570 C.3     1  ZINC001070580102    0.0800
     15 O15         1.2708    4.4583   46.4156 O.3     1  ZINC001070580102   -0.3800
     16 C16         0.4822    3.7504   45.4552 C.3     1  ZINC001070580102    0.0600
     17 C17         0.4480    2.2654   45.8260 C.3     1  ZINC001070580102    0.0200
     18 N18        -0.0739    2.1177   47.1925 N.3     1  ZINC001070580102   -0.5200
     19 C19        -0.1760    0.7008   47.5667 C.3     1  ZINC001070580102    0.0600
     20 C20        -0.7704   -0.0928   46.4015 C.3     1  ZINC001070580102    0.0800
     21 O21        -1.2246   -1.3631   46.8730 O.3     1  ZINC001070580102   -0.5700
     22 N22         0.7270    2.0653   50.5257 N.2     1  ZINC001070580102   -0.2700
     23 N23        -0.1381    2.1942   51.6246 N.pl3   1  ZINC001070580102   -0.4700
     24 C24        -7.0341    1.6855   52.5599 C.2     1  ZINC001070580102    0.0900
     25 C25        -7.6875    2.9382   53.0843 C.3     1  ZINC001070580102   -0.0900
     26 O26        -7.6561    0.5342   52.2881 O.3     1  ZINC001070580102   -0.1700
     27 H27        -8.2067   -1.9561   51.5708 H       1  ZINC001070580102    0.0800
     28 H28        -6.8714   -1.9529   50.3938 H       1  ZINC001070580102    0.0900
     29 H29        -6.5844   -2.4977   52.0639 H       1  ZINC001070580102    0.0900
     30 H30        -4.6474   -0.3296   51.4796 H       1  ZINC001070580102    0.1500
     31 H31        -3.2484    1.4991   51.4150 H       1  ZINC001070580102    0.4000
     32 H32        -2.7448    4.2987   51.6854 H       1  ZINC001070580102    0.1000
     33 H33        -2.0800    3.4092   53.0764 H       1  ZINC001070580102    0.1100
     34 H34        -0.2158    4.7526   47.8218 H       1  ZINC001070580102    0.0700
     35 H35         1.4525    4.8801   48.4315 H       1  ZINC001070580102    0.1000
     36 H36        -0.5326    4.1484   45.4532 H       1  ZINC001070580102    0.0600
     37 H37         0.9221    3.8683   44.4650 H       1  ZINC001070580102    0.1000
     38 H38        -0.1984    1.7312   45.1297 H       1  ZINC001070580102    0.1200
     39 H39         1.4564    1.8545   45.7759 H       1  ZINC001070580102    0.0400
     40 H40         0.8159    0.3145   47.8009 H       1  ZINC001070580102    0.0500
     41 H41        -0.8203    0.6013   48.4402 H       1  ZINC001070580102    0.0800
     42 H42        -1.6095    0.4584   45.9770 H       1  ZINC001070580102    0.0500
     43 H43        -0.0084   -0.2406   45.6363 H       1  ZINC001070580102    0.0600
     44 H44        -1.9613   -1.3104   47.4973 H       1  ZINC001070580102    0.3800
     45 H45        -0.0117    1.8208   52.5108 H       1  ZINC001070580102    0.4400
     46 H46        -8.0155    3.5546   52.2474 H       1  ZINC001070580102    0.0900
     47 H47        -8.5482    2.6697   53.6970 H       1  ZINC001070580102    0.0800
     48 H48        -6.9717    3.4960   53.6880 H       1  ZINC001070580102    0.1100
@<TRIPOS>BOND
     1     1     2    1
     2     1    27    1
     3     1    28    1
     4     1    29    1
     5     2    26    1
     6     2     3    2
     7     3     4    1
     8     3    30    1
     9     4     5    1
    10     4    24    2
    11     5     6    2
    12     5     7   am
    13     7     8    1
    14     7    31    1
    15     8     9    1
    16     8    32    1
    17     8    33    1
    18     9    23    1
    19     9    10    2
    20    10    11    1
    21    11    12    1
    22    11    22    2
    23    12    13    1
    24    12    18    1
    25    12    14    1
    26    14    15    1
    27    14    34    1
    28    14    35    1
    29    15    16    1
    30    16    17    1
    31    16    36    1
    32    16    37    1
    33    17    18    1
    34    17    38    1
    35    17    39    1
    36    18    19    1
    37    19    20    1
    38    19    40    1
    39    19    41    1
    40    20    21    1
    41    20    42    1
    42    20    43    1
    43    21    44    1
    44    22    23    1
    45    23    45    1
    46    24    25    1
    47    24    26    1
    48    25    46    1
    49    25    47    1
    50    25    48    1
@<TRIPOS>SUBSTRUCTURE
     1 ZINC001070580102        1 TEMP              0 ****  ****    0 ROOT


##########                                Name:    ZINC001386869844
##########                DOCK_Rotatable_Bonds:                   9
##########                         Heavy_Atoms:                  25
##########                    Molecular_Weight:             345.485
##########                DOCK_Rotatable_Bonds:                   9
##########                       Formal_Charge:          -0.0300003
##########                     HBond_Acceptors:                   5
##########                        HBond_Donors:                   2
##########                         Heavy_Atoms:                  25
##########                          Grid_Score:          -34.211243
##########                     Grid_vdw_energy:          -34.633484
##########                      Grid_es_energy:            0.422243
##########           Internal_energy_repulsive:           33.427666

@<TRIPOS>MOLECULE
ZINC001386869844
 56 58 1 0 0
SMALL
USER_CHARGES


@<TRIPOS>ATOM
      1 C1        -12.8858   -3.7020   53.4644 C.3     1  ZINC001386869844    0.0600
      2 N2        -11.6700   -2.8858   53.4203 N.am    1  ZINC001386869844   -0.6200
      3 C3        -10.7448   -2.8880   54.5562 C.3     1  ZINC001386869844    0.1100
      4 C4        -11.5290   -3.1019   55.8523 C.3     1  ZINC001386869844    0.1000
      5 N5        -10.6338   -2.9284   56.9989 N.am    1  ZINC001386869844   -0.7300
      6 C6        -11.1460   -2.7471   58.2324 C.2     1  ZINC001386869844    0.5200
      7 O7        -12.3479   -2.7226   58.3923 O.2     1  ZINC001386869844   -0.5300
      8 C8        -10.2251   -2.5685   59.4119 C.3     1  ZINC001386869844   -0.1300
      9 C9        -10.2098   -1.0964   59.8286 C.3     1  ZINC001386869844   -0.0100
     10 C10       -11.4879   -0.7727   60.6046 C.3     1  ZINC001386869844   -0.1500
     11 C11        -8.9926   -0.8304   60.7166 C.3     1  ZINC001386869844   -0.1600
     12 C12       -10.1333   -0.2141   58.5809 C.3     1  ZINC001386869844   -0.1500
     13 C13        -8.8421    0.5737   58.3508 C.3     1  ZINC001386869844   -0.1900
     14 C14       -10.1158    1.3018   58.7877 C.3     1  ZINC001386869844   -0.1800
     15 C15       -11.4027   -2.1330   52.3348 C.2     1  ZINC001386869844    0.5900
     16 O16       -12.1712   -2.1313   51.3913 O.2     1  ZINC001386869844   -0.5200
     17 C17       -10.1853   -1.3159   52.2907 C.2     1  ZINC001386869844   -0.0600
     18 C18       -10.1157    0.0530   52.4549 C.2     1  ZINC001386869844   -0.0900
     19 C19        -8.7746    0.4090   52.3376 C.2     1  ZINC001386869844   -0.1700
     20 C20        -8.0573   -0.7227   52.1072 C.2     1  ZINC001386869844    0.0500
     21 C21        -6.5591   -0.7453   51.9188 C.3     1  ZINC001386869844   -0.0600
     22 C22        -6.0876    0.6818   51.6156 C.3     1  ZINC001386869844   -0.1100
     23 C23        -6.6629    1.6432   52.6591 C.3     1  ZINC001386869844   -0.1200
     24 C24        -8.1739    1.7887   52.4415 C.3     1  ZINC001386869844   -0.0500
     25 N25        -8.9030   -1.7763   52.0841 N.pl3   1  ZINC001386869844   -0.5400
     26 H26       -13.7248   -3.0867   53.7893 H       1  ZINC001386869844    0.0600
     27 H27       -13.0913   -4.1016   52.4714 H       1  ZINC001386869844    0.0800
     28 H28       -12.7459   -4.5248   54.1654 H       1  ZINC001386869844    0.0900
     29 H29       -10.2224   -1.9324   54.6010 H       1  ZINC001386869844    0.1000
     30 H30       -10.0200   -3.6928   54.4329 H       1  ZINC001386869844    0.0900
     31 H31       -11.9432   -4.1101   55.8642 H       1  ZINC001386869844    0.0700
     32 H32       -12.3394   -2.3754   55.9108 H       1  ZINC001386869844    0.0700
     33 H33        -9.6725   -2.9438   56.8705 H       1  ZINC001386869844    0.4000
     34 H34       -10.5779   -3.1779   60.2438 H       1  ZINC001386869844    0.0900
     35 H35        -9.2172   -2.8786   59.1362 H       1  ZINC001386869844    0.0900
     36 H36       -11.5424   -1.4013   61.4934 H       1  ZINC001386869844    0.0800
     37 H37       -11.4770    0.2761   60.9014 H       1  ZINC001386869844    0.0500
     38 H38       -12.3551   -0.9622   59.9719 H       1  ZINC001386869844    0.0500
     39 H39        -8.0821   -1.0611   60.1638 H       1  ZINC001386869844    0.0500
     40 H40        -8.9817    0.2184   61.0134 H       1  ZINC001386869844    0.0500
     41 H41        -9.0471   -1.4590   61.6054 H       1  ZINC001386869844    0.0800
     42 H42       -10.6531   -0.5962   57.7023 H       1  ZINC001386869844    0.1000
     43 H43        -8.0471    0.4635   59.0883 H       1  ZINC001386869844    0.1000
     44 H44        -8.5126    0.7102   57.3208 H       1  ZINC001386869844    0.0900
     45 H45       -10.6237    1.9169   58.0448 H       1  ZINC001386869844    0.0900
     46 H46       -10.1588    1.6705   59.8125 H       1  ZINC001386869844    0.0900
     47 H47       -10.9442    0.7211   52.6388 H       1  ZINC001386869844    0.1500
     48 H48        -6.0800   -1.1043   52.8297 H       1  ZINC001386869844    0.0800
     49 H49        -6.3036   -1.4009   51.0862 H       1  ZINC001386869844    0.0800
     50 H50        -4.9988    0.7192   51.6484 H       1  ZINC001386869844    0.0700
     51 H51        -6.4312    0.9746   50.6235 H       1  ZINC001386869844    0.0700
     52 H52        -6.4758    1.2495   53.6581 H       1  ZINC001386869844    0.0600
     53 H53        -6.1856    2.6178   52.5573 H       1  ZINC001386869844    0.0700
     54 H54        -8.3608    2.3408   51.5205 H       1  ZINC001386869844    0.0700
     55 H55        -8.6168    2.3194   53.2844 H       1  ZINC001386869844    0.0700
     56 H56        -8.6500   -2.7020   51.9433 H       1  ZINC001386869844    0.4200
@<TRIPOS>BOND
     1     1     2    1
     2     1    26    1
     3     1    27    1
     4     1    28    1
     5     2     3    1
     6     2    15   am
     7     3     4    1
     8     3    29    1
     9     3    30    1
    10     4     5    1
    11     4    31    1
    12     4    32    1
    13     5     6   am
    14     5    33    1
    15     6     7    2
    16     6     8    1
    17     8     9    1
    18     8    34    1
    19     8    35    1
    20     9    10    1
    21     9    11    1
    22     9    12    1
    23    10    36    1
    24    10    37    1
    25    10    38    1
    26    11    39    1
    27    11    40    1
    28    11    41    1
    29    12    14    1
    30    12    13    1
    31    12    42    1
    32    13    14    1
    33    13    43    1
    34    13    44    1
    35    14    45    1
    36    14    46    1
    37    15    16    2
    38    15    17    1
    39    17    25    1
    40    17    18    2
    41    18    19    1
    42    18    47    1
    43    19    24    1
    44    19    20    2
    45    20    21    1
    46    20    25    1
    47    21    22    1
    48    21    48    1
    49    21    49    1
    50    22    23    1
    51    22    50    1
    52    22    51    1
    53    23    24    1
    54    23    52    1
    55    23    53    1
    56    24    54    1
    57    24    55    1
    58    25    56    1
@<TRIPOS>SUBSTRUCTURE
     1 ZINC001386869844        1 TEMP              0 ****  ****    0 ROOT


##########                                Name:    ZINC000991934963
##########                DOCK_Rotatable_Bonds:                   8
##########                         Heavy_Atoms:                  27
##########                    Molecular_Weight:             370.495
##########                DOCK_Rotatable_Bonds:                   8
##########                       Formal_Charge:          -0.0499997
##########                     HBond_Acceptors:                   6
##########                        HBond_Donors:                   1
##########                         Heavy_Atoms:                  27
##########                          Grid_Score:          -34.209488
##########                     Grid_vdw_energy:          -34.981731
##########                      Grid_es_energy:            0.772244
##########           Internal_energy_repulsive:           12.220848

@<TRIPOS>MOLECULE
ZINC000991934963
 57 61 1 0 0
SMALL
USER_CHARGES


@<TRIPOS>ATOM
      1 C1         -6.2957   -1.1143   51.4740 C.3     1  ZINC000991934963    0.0400
      2 O2         -6.3370    0.0400   52.3154 O.3     1  ZINC000991934963   -0.2900
      3 C3         -7.5502    0.4125   52.7893 C.ar    1  ZINC000991934963    0.5000
      4 N4         -7.6199    1.3562   53.7139 N.ar    1  ZINC000991934963   -0.5700
      5 C5         -8.7884    1.7438   54.1985 C.ar    1  ZINC000991934963    0.1900
      6 C6         -9.9469    1.1483   53.7256 C.ar    1  ZINC000991934963   -0.2700
      7 C7         -9.8367    0.1631   52.7569 C.ar    1  ZINC000991934963    0.2200
      8 C8        -11.0687   -0.5128   52.2126 C.3     1  ZINC000991934963    0.1000
      9 N9        -11.5892   -1.4584   53.2092 N.3     1  ZINC000991934963   -0.4900
     10 C10       -11.0088   -2.8238   53.0076 C.3     1  ZINC000991934963    0.0400
     11 C11       -12.2149   -3.8120   52.9331 C.3     1  ZINC000991934963   -0.1400
     12 C12       -13.2866   -3.0330   53.6928 C.3     1  ZINC000991934963    0.1700
     13 N13       -13.0885   -3.0828   55.1435 N.am    1  ZINC000991934963   -0.7000
     14 C14       -13.2231   -4.2508   55.8023 C.2     1  ZINC000991934963    0.5200
     15 O15       -13.5097   -5.2604   55.1944 O.2     1  ZINC000991934963   -0.5300
     16 C16       -13.0176   -4.3023   57.2944 C.3     1  ZINC000991934963   -0.1100
     17 C17       -14.3196   -3.9217   58.0020 C.3     1  ZINC000991934963   -0.1300
     18 H18       -15.0719   -4.7086   58.0576 H       1  ZINC000991934963    0.1200
     19 C19       -14.8135   -2.4820   57.8465 C.3     1  ZINC000991934963   -0.1700
     20 C20       -14.2255   -2.9499   59.1800 C.3     1  ZINC000991934963   -0.1200
     21 H21       -13.2361   -2.5815   59.4508 H       1  ZINC000991934963    0.1000
     22 C22       -15.1948   -3.1562   60.3459 C.3     1  ZINC000991934963   -0.1200
     23 C23       -14.8698   -2.4560   61.6669 C.3     1  ZINC000991934963   -0.1800
     24 C24       -16.0232   -1.9517   60.7972 C.3     1  ZINC000991934963   -0.1800
     25 C25       -14.7509   -3.1754   53.2915 C.3     1  ZINC000991934963   -0.1200
     26 C26       -15.3324   -1.7698   53.6399 C.3     1  ZINC000991934963   -0.1200
     27 C27       -14.1287   -0.7815   53.5730 C.3     1  ZINC000991934963   -0.1000
     28 C28       -12.9974   -1.6163   53.0758 C.3     1  ZINC000991934963    0.0500
     29 H29       -13.1770   -1.7616   52.0105 H       1  ZINC000991934963    0.0400
     30 N30        -8.6369   -0.1728   52.3123 N.ar    1  ZINC000991934963   -0.5000
     31 H31        -6.9146   -0.9440   50.5930 H       1  ZINC000991934963    0.0600
     32 H32        -5.2674   -1.3019   51.1648 H       1  ZINC000991934963    0.1100
     33 H33        -6.6735   -1.9773   52.0222 H       1  ZINC000991934963    0.0600
     34 H34        -8.8388    2.5145   54.9535 H       1  ZINC000991934963    0.1700
     35 H35       -10.9141    1.4450   54.1037 H       1  ZINC000991934963    0.1500
     36 H36       -11.8280    0.2379   51.9929 H       1  ZINC000991934963    0.1000
     37 H37       -10.8147   -1.0507   51.2993 H       1  ZINC000991934963    0.0600
     38 H38       -10.4419   -2.8552   52.0772 H       1  ZINC000991934963    0.0600
     39 H39       -10.3641   -3.0835   53.8474 H       1  ZINC000991934963    0.0800
     40 H40       -12.5155   -3.9860   51.9000 H       1  ZINC000991934963    0.0800
     41 H41       -11.9833   -4.7512   53.4355 H       1  ZINC000991934963    0.0900
     42 H42       -12.8605   -2.2751   55.6299 H       1  ZINC000991934963    0.4000
     43 H43       -12.7270   -5.3115   57.5864 H       1  ZINC000991934963    0.1000
     44 H44       -12.2321   -3.6018   57.5774 H       1  ZINC000991934963    0.0900
     45 H45       -14.2108   -1.8060   57.2399 H       1  ZINC000991934963    0.0900
     46 H46       -15.8907   -2.3217   57.8000 H       1  ZINC000991934963    0.1000
     47 H47       -15.6644   -4.1384   60.3986 H       1  ZINC000991934963    0.1000
     48 H48       -15.1257   -2.9777   62.5891 H       1  ZINC000991934963    0.0900
     49 H49       -13.9656   -1.8485   61.7054 H       1  ZINC000991934963    0.0900
     50 H50       -15.8779   -1.0124   60.2637 H       1  ZINC000991934963    0.0900
     51 H51       -17.0379   -2.1415   61.1474 H       1  ZINC000991934963    0.0900
     52 H52       -14.8421   -3.3788   52.2246 H       1  ZINC000991934963    0.0800
     53 H53       -15.2396   -3.9532   53.8784 H       1  ZINC000991934963    0.0800
     54 H54       -16.0922   -1.4864   52.9116 H       1  ZINC000991934963    0.0700
     55 H55       -15.7572   -1.7772   54.6437 H       1  ZINC000991934963    0.0700
     56 H56       -14.3394    0.0296   52.8760 H       1  ZINC000991934963    0.0700
     57 H57       -13.9044   -0.3860   54.5635 H       1  ZINC000991934963    0.0700
@<TRIPOS>BOND
     1     1     2    1
     2     1    31    1
     3     1    32    1
     4     1    33    1
     5     2     3    1
     6     3    30   ar
     7     3     4   ar
     8     4     5   ar
     9     5     6   ar
    10     5    34    1
    11     6     7   ar
    12     6    35    1
    13     7     8    1
    14     7    30   ar
    15     8     9    1
    16     8    36    1
    17     8    37    1
    18     9    28    1
    19     9    10    1
    20    10    11    1
    21    10    38    1
    22    10    39    1
    23    11    12    1
    24    11    40    1
    25    11    41    1
    26    12    28    1
    27    12    13    1
    28    12    25    1
    29    13    14   am
    30    13    42    1
    31    14    15    2
    32    14    16    1
    33    16    17    1
    34    16    43    1
    35    16    44    1
    36    17    18    1
    37    17    20    1
    38    17    19    1
    39    19    20    1
    40    19    45    1
    41    19    46    1
    42    20    21    1
    43    20    22    1
    44    22    24    1
    45    22    23    1
    46    22    47    1
    47    23    24    1
    48    23    48    1
    49    23    49    1
    50    24    50    1
    51    24    51    1
    52    25    26    1
    53    25    52    1
    54    25    53    1
    55    26    27    1
    56    26    54    1
    57    26    55    1
    58    27    28    1
    59    27    56    1
    60    27    57    1
    61    28    29    1
@<TRIPOS>SUBSTRUCTURE
     1 ZINC000991934963        1 TEMP              0 ****  ****    0 ROOT


##########                                Name:    ZINC000503413572
##########                DOCK_Rotatable_Bonds:                   7
##########                         Heavy_Atoms:                  26
##########                    Molecular_Weight:             355.375
##########                DOCK_Rotatable_Bonds:                   7
##########                       Formal_Charge:        -1.71363e-07
##########                     HBond_Acceptors:                   9
##########                        HBond_Donors:                   1
##########                         Heavy_Atoms:                  26
##########                          Grid_Score:          -34.202709
##########                     Grid_vdw_energy:          -32.627102
##########                      Grid_es_energy:           -1.575606
##########           Internal_energy_repulsive:            7.514695

@<TRIPOS>MOLECULE
ZINC000503413572
 44 47 1 0 0
SMALL
USER_CHARGES


@<TRIPOS>ATOM
      1 C1        -10.6883    0.7929   52.7679 C.3     1  ZINC000503413572   -0.1200
      2 C2         -9.2749    0.3491   52.4916 C.ar    1  ZINC000503413572   -0.0200
      3 C3         -8.3098    1.2807   52.1641 C.ar    1  ZINC000503413572   -0.1400
      4 C4         -7.0105    0.8733   51.9104 C.ar    1  ZINC000503413572    0.1300
      5 F5         -6.0674    1.7863   51.5905 F       1  ZINC000503413572   -0.1300
      6 C6         -6.6768   -0.4684   51.9849 C.ar    1  ZINC000503413572   -0.1400
      7 C7         -7.6396   -1.4032   52.3122 C.ar    1  ZINC000503413572   -0.0700
      8 C8         -8.9410   -0.9962   52.5718 C.ar    1  ZINC000503413572    0.1000
      9 N9         -9.9199   -1.9441   52.9049 N.pl3   1  ZINC000503413572   -0.3100
     10 C10       -10.4889   -2.1226   54.1167 C.2     1  ZINC000503413572    0.1100
     11 C11       -11.3835   -3.1469   53.9858 C.2     1  ZINC000503413572   -0.1000
     12 C12       -12.2383   -3.6876   55.0596 C.2     1  ZINC000503413572    0.6100
     13 O13       -12.7282   -4.7948   54.9472 O.2     1  ZINC000503413572   -0.5300
     14 N14       -12.4762   -2.9545   56.1651 N.am    1  ZINC000503413572   -0.7200
     15 C15       -13.3237   -3.4922   57.2323 C.3     1  ZINC000503413572    0.1100
     16 C16       -14.1278   -2.3556   57.8667 C.3     1  ZINC000503413572    0.1000
     17 N17       -14.3778   -2.6624   59.2772 N.pl3   1  ZINC000503413572   -0.4700
     18 C18       -15.3911   -3.4068   59.7822 C.2     1  ZINC000503413572    0.1500
     19 N19       -15.2461   -3.4312   61.0791 N.2     1  ZINC000503413572   -0.2900
     20 N20       -14.2074   -2.7497   61.4115 N.2     1  ZINC000503413572   -0.2900
     21 C21       -13.6394   -2.2643   60.3412 C.2     1  ZINC000503413572    0.2100
     22 C22       -12.3982   -1.4107   60.2979 C.3     1  ZINC000503413572   -0.1000
     23 C23       -12.1783   -0.4250   61.4471 C.3     1  ZINC000503413572   -0.1500
     24 C24       -11.3157   -1.6844   61.3439 C.3     1  ZINC000503413572   -0.1600
     25 N25       -11.3532   -3.5786   52.7133 N.2     1  ZINC000503413572   -0.2000
     26 N26       -10.5007   -2.8849   52.0426 N.2     1  ZINC000503413572   -0.0400
     27 H27       -10.8242    0.9256   53.8412 H       1  ZINC000503413572    0.0900
     28 H28       -10.8788    1.7373   52.2579 H       1  ZINC000503413572    0.0800
     29 H29       -11.3841    0.0368   52.4043 H       1  ZINC000503413572    0.0700
     30 H30        -8.5683    2.3276   52.1051 H       1  ZINC000503413572    0.1500
     31 H31        -5.6633   -0.7844   51.7865 H       1  ZINC000503413572    0.1500
     32 H32        -7.3790   -2.4497   52.3698 H       1  ZINC000503413572    0.1500
     33 H33       -10.2772   -1.5635   55.0161 H       1  ZINC000503413572    0.2100
     34 H34       -12.0864   -2.0707   56.2543 H       1  ZINC000503413572    0.4100
     35 H35       -14.0071   -4.2321   56.8156 H       1  ZINC000503413572    0.0800
     36 H36       -12.6981   -3.9622   57.9912 H       1  ZINC000503413572    0.0800
     37 H37       -13.5640   -1.4257   57.7915 H       1  ZINC000503413572    0.1100
     38 H38       -15.0784   -2.2474   57.3444 H       1  ZINC000503413572    0.1100
     39 H39       -16.1742   -3.8898   59.2165 H       1  ZINC000503413572    0.2200
     40 H40       -12.0718   -1.1060   59.3036 H       1  ZINC000503413572    0.1200
     41 H41       -11.7071    0.5286   61.2090 H       1  ZINC000503413572    0.1100
     42 H42       -12.9314   -0.3938   62.2346 H       1  ZINC000503413572    0.1100
     43 H43       -11.5013   -2.4819   62.0635 H       1  ZINC000503413572    0.1000
     44 H44       -10.2771   -1.5595   61.0378 H       1  ZINC000503413572    0.1100
@<TRIPOS>BOND
     1     1     2    1
     2     1    27    1
     3     1    28    1
     4     1    29    1
     5     2     8   ar
     6     2     3   ar
     7     3     4   ar
     8     3    30    1
     9     4     5    1
    10     4     6   ar
    11     6     7   ar
    12     6    31    1
    13     7     8   ar
    14     7    32    1
    15     8     9    1
    16     9    26    1
    17     9    10    1
    18    10    11    2
    19    10    33    1
    20    11    12    1
    21    11    25    1
    22    12    13    2
    23    12    14   am
    24    14    15    1
    25    14    34    1
    26    15    16    1
    27    15    35    1
    28    15    36    1
    29    16    17    1
    30    16    37    1
    31    16    38    1
    32    17    21    1
    33    17    18    1
    34    18    19    2
    35    18    39    1
    36    19    20    1
    37    20    21    2
    38    21    22    1
    39    22    24    1
    40    22    23    1
    41    22    40    1
    42    23    24    1
    43    23    41    1
    44    23    42    1
    45    24    43    1
    46    24    44    1
    47    25    26    2
@<TRIPOS>SUBSTRUCTURE
     1 ZINC000503413572        1 TEMP              0 ****  ****    0 ROOT


##########                                Name:     oleObject15.pdb
##########                DOCK_Rotatable_Bonds:                   9
##########                         Heavy_Atoms:                  29
##########                    Molecular_Weight:             395.545
##########                DOCK_Rotatable_Bonds:                   9
##########                       Formal_Charge:         0.000700183
##########                     HBond_Acceptors:                   5
##########                        HBond_Donors:                   1
##########                         Heavy_Atoms:                  29
##########                          Grid_Score:          -34.143379
##########                     Grid_vdw_energy:          -33.807205
##########                      Grid_es_energy:           -0.336175
##########           Internal_energy_repulsive:           15.781640

@<TRIPOS>MOLECULE
oleObject15.pdb
 62 64 1 0 0
SMALL
NO_CHARGES


@<TRIPOS>ATOM
      1 O           3.5380    0.6708   48.5490 O.3     1  UNL        -0.3745
      2 C           3.3277   -0.3858   47.5851 C.3     1  UNL         0.0600
      3 C           2.7430    0.2338   46.2946 C.3     1  UNL         0.0217
      4 N           1.3145    0.6159   46.3870 N.4     1  UNL        -0.3010
      5 C           0.4685   -0.3321   47.1477 C.3     1  UNL        -0.0010
      6 C          -1.0246    0.0577   47.0913 C.3     1  UNL        -0.0289
      7 C          -1.2823    1.5166   47.5388 C.3     1  UNL         0.0382
      8 C          -0.3240    2.4785   46.7921 C.3     1  UNL        -0.0289
      9 C           1.1527    2.0195   46.8217 C.3     1  UNL        -0.0010
     10 C          -1.1893    1.6687   49.0775 C.2     1  UNL         0.2156
     11 O          -0.2073    1.3106   49.7020 O.2     1  UNL        -0.2774
     12 N          -2.2282    2.2705   49.7760 N.am    1  UNL        -0.3025
     13 C          -2.3204    2.5028   51.2297 C.3     1  UNL         0.0900
     14 C          -1.8473    3.8959   51.6409 C.ar    1  UNL        -0.0217
     15 C          -1.9705    4.9950   50.7670 C.ar    1  UNL        -0.0568
     16 C          -1.5190    6.2666   51.1562 C.ar    1  UNL        -0.0619
     17 C          -0.9438    6.4509   52.4232 C.ar    1  UNL        -0.0622
     18 C          -0.8231    5.3627   53.3016 C.ar    1  UNL        -0.0619
     19 C          -1.2749    4.0912   52.9122 C.ar    1  UNL        -0.0568
     20 C          -3.7270    2.2331   51.7559 C.ar    1  UNL         0.0652
     21 C          -4.4124    3.1718   52.5546 C.ar    1  UNL        -0.0383
     22 C          -5.7018    2.8620   53.0160 C.ar    1  UNL        -0.0588
     23 C          -6.2608    1.6238   52.6641 C.ar    1  UNL        -0.0438
     24 C          -5.5079    0.7459   51.8656 C.ar    1  UNL         0.0272
     25 N          -4.2694    1.0417   51.4217 N.ar    1  UNL        -0.2590
     26 C           4.1669    0.3673   49.8168 C.3     1  UNL         0.0599
     27 C           4.3089    1.6654   50.6507 C.3     1  UNL        -0.0364
     28 C           3.1977   -0.6092   50.5208 C.3     1  UNL        -0.0364
     29 C           5.5361   -0.3179   49.5803 C.3     1  UNL        -0.0364
     30 H           2.6161   -1.1230   47.9759 H       1  UNL         0.0581
     31 H           4.2628   -0.9062   47.3513 H       1  UNL         0.0581
     32 H           2.8673   -0.5002   45.4882 H       1  UNL         0.0455
     33 H           3.3405    1.1149   46.0283 H       1  UNL         0.0455
     34 H           0.7973   -0.3656   48.1944 H       1  UNL         0.0431
     35 H           0.5615   -1.3439   46.7362 H       1  UNL         0.0431
     36 H          -1.6100   -0.6381   47.7033 H       1  UNL         0.0288
     37 H          -1.3757   -0.0631   46.0582 H       1  UNL         0.0288
     38 H          -2.2910    1.7845   47.2135 H       1  UNL         0.0402
     39 H          -0.4085    3.4911   47.2067 H       1  UNL         0.0288
     40 H          -0.6407    2.5428   45.7430 H       1  UNL         0.0288
     41 H           1.5511    2.1384   47.8371 H       1  UNL         0.0431
     42 H           1.7333    2.6796   46.1646 H       1  UNL         0.0431
     43 H          -2.9606    2.6737   49.2059 H       1  UNL         0.1504
     44 H          -1.6639    1.7654   51.7091 H       1  UNL         0.0624
     45 H          -2.4067    4.8645   49.7809 H       1  UNL         0.0626
     46 H          -1.6130    7.1076   50.4752 H       1  UNL         0.0623
     47 H          -0.5940    7.4343   52.7242 H       1  UNL         0.0623
     48 H          -0.3805    5.5041   54.2835 H       1  UNL         0.0623
     49 H          -1.1780    3.2557   53.6000 H       1  UNL         0.0626
     50 H          -3.9556    4.1223   52.8131 H       1  UNL         0.0643
     51 H          -6.2542    3.5652   53.6326 H       1  UNL         0.0624
     52 H          -7.2555    1.3484   53.0021 H       1  UNL         0.0639
     53 H          -5.9079   -0.2241   51.5728 H       1  UNL         0.0840
     54 H           3.3547    2.2060   50.6960 H       1  UNL         0.0260
     55 H           5.0643    2.3376   50.2263 H       1  UNL         0.0260
     56 H           4.6157    1.4341   51.6785 H       1  UNL         0.0260
     57 H           2.2128   -0.1464   50.6642 H       1  UNL         0.0260
     58 H           3.5809   -0.9035   51.5061 H       1  UNL         0.0260
     59 H           3.0595   -1.5203   49.9246 H       1  UNL         0.0260
     60 H           6.2667    0.3800   49.1530 H       1  UNL         0.0260
     61 H           5.4334   -1.1698   48.8960 H       1  UNL         0.0260
     62 H           5.9508   -0.6913   50.5251 H       1  UNL         0.0260
@<TRIPOS>BOND
     1     1     2    1
     2     1    26    1
     3     2     3    1
     4     2    30    1
     5     2    31    1
     6     3     4    1
     7     3    32    1
     8     3    33    1
     9     4     5    1
    10     4     9    1
    11     5     6    1
    12     5    34    1
    13     5    35    1
    14     6     7    1
    15     6    36    1
    16     6    37    1
    17     7     8    1
    18     7    10    1
    19     7    38    1
    20     8     9    1
    21     8    39    1
    22     8    40    1
    23     9    41    1
    24     9    42    1
    25    10    11    2
    26    10    12   am
    27    12    13    1
    28    12    43    1
    29    13    14    1
    30    13    20    1
    31    13    44    1
    32    14    15   ar
    33    14    19   ar
    34    15    16   ar
    35    15    45    1
    36    16    17   ar
    37    16    46    1
    38    17    18   ar
    39    17    47    1
    40    18    19   ar
    41    18    48    1
    42    19    49    1
    43    20    21   ar
    44    20    25   ar
    45    21    22   ar
    46    21    50    1
    47    22    23   ar
    48    22    51    1
    49    23    24   ar
    50    23    52    1
    51    24    25   ar
    52    24    53    1
    53    26    27    1
    54    26    28    1
    55    26    29    1
    56    27    54    1
    57    27    55    1
    58    27    56    1
    59    28    57    1
    60    28    58    1
    61    28    59    1
    62    29    60    1
    63    29    61    1
    64    29    62    1
@<TRIPOS>SUBSTRUCTURE
     1 UNL         1 TEMP              0 ****  ****    0 ROOT


##########                                Name:    ZINC000182044395
##########                DOCK_Rotatable_Bonds:                   8
##########                         Heavy_Atoms:                  28
##########                    Molecular_Weight:             398.889
##########                DOCK_Rotatable_Bonds:                   8
##########                       Formal_Charge:          -0.0399999
##########                     HBond_Acceptors:                   6
##########                        HBond_Donors:                   2
##########                         Heavy_Atoms:                  28
##########                          Grid_Score:          -34.108501
##########                     Grid_vdw_energy:          -34.015057
##########                      Grid_es_energy:           -0.093446
##########           Internal_energy_repulsive:           19.974144

@<TRIPOS>MOLECULE
ZINC000182044395
 51 53 1 0 0
SMALL
USER_CHARGES


@<TRIPOS>ATOM
      1 C1         -7.4347    3.5630   55.5080 C.3     1  ZINC000182044395   -0.1800
      2 C2         -7.9794    3.5253   54.0787 C.3     1  ZINC000182044395    0.0800
      3 N3         -7.5835    2.2686   53.4381 N.pl3   1  ZINC000182044395   -0.4800
      4 C4         -8.4810    1.2774   53.3619 C.2     1  ZINC000182044395    0.2500
      5 C5         -8.1881    0.0638   52.7750 C.2     1  ZINC000182044395   -0.3500
      6 C6         -9.2024   -1.0000   52.7108 C.2     1  ZINC000182044395    0.5900
      7 O7         -9.1729   -1.8149   51.8081 O.2     1  ZINC000182044395   -0.5600
      8 N8        -10.1644   -1.0716   53.6521 N.am    1  ZINC000182044395   -0.7200
      9 C9        -11.1744   -2.1309   53.5881 C.3     1  ZINC000182044395    0.1100
     10 H10       -11.2588   -2.4911   52.5628 H       1  ZINC000182044395    0.0900
     11 C11       -10.7606   -3.2860   54.5021 C.3     1  ZINC000182044395   -0.1600
     12 C12       -12.5247   -1.5763   54.0466 C.3     1  ZINC000182044395    0.1100
     13 H13       -12.4809   -1.3481   55.1116 H       1  ZINC000182044395    0.1100
     14 O14       -12.8231   -0.3850   53.3161 O.3     1  ZINC000182044395   -0.5500
     15 C15       -13.6165   -2.6175   53.7925 C.3     1  ZINC000182044395   -0.1100
     16 C16       -14.0866   -3.1836   55.1077 C.ar    1  ZINC000182044395   -0.0800
     17 C17       -13.9174   -4.5280   55.3814 C.ar    1  ZINC000182044395   -0.1000
     18 C18       -14.3489   -5.0473   56.5877 C.ar    1  ZINC000182044395   -0.1200
     19 C19       -14.9489   -4.2222   57.5204 C.ar    1  ZINC000182044395   -0.1200
     20 C20       -15.1225   -2.8788   57.2447 C.ar    1  ZINC000182044395   -0.1200
     21 C21       -14.6874   -2.3586   56.0400 C.ar    1  ZINC000182044395   -0.1200
     22 C22        -6.8425   -0.1513   52.2198 C.2     1  ZINC000182044395    0.4400
     23 O23        -6.5330   -1.2071   51.6961 O.2     1  ZINC000182044395   -0.4900
     24 C24        -5.8860    0.9670   52.3192 C.ar    1  ZINC000182044395   -0.1800
     25 C25        -4.5905    0.8550   51.8155 C.ar    1  ZINC000182044395   -0.0200
     26 C26        -3.7207    1.9183   51.9314 C.ar    1  ZINC000182044395   -0.0700
     27 Cl27       -2.1060    1.7863   51.3074 Cl      1  ZINC000182044395   -0.0500
     28 C28        -4.1310    3.0945   52.5446 C.ar    1  ZINC000182044395   -0.0500
     29 C29        -5.4083    3.2182   53.0458 C.ar    1  ZINC000182044395   -0.1600
     30 C30        -6.3032    2.1567   52.9401 C.ar    1  ZINC000182044395    0.1900
     31 H31        -6.3471    3.4941   55.4842 H       1  ZINC000182044395    0.0700
     32 H32        -7.7292    4.4980   55.9846 H       1  ZINC000182044395    0.0800
     33 H33        -7.8396    2.7237   56.0733 H       1  ZINC000182044395    0.0700
     34 H34        -7.5744    4.3647   53.5133 H       1  ZINC000182044395    0.1000
     35 H35        -9.0669    3.5941   54.1025 H       1  ZINC000182044395    0.1100
     36 H36        -9.4673    1.4335   53.7734 H       1  ZINC000182044395    0.1800
     37 H37       -10.1878   -0.4219   54.3719 H       1  ZINC000182044395    0.4100
     38 H38        -9.7987   -3.6811   54.1754 H       1  ZINC000182044395    0.0600
     39 H39       -10.6763   -2.9259   55.5274 H       1  ZINC000182044395    0.0600
     40 H40       -11.5121   -4.0741   54.4545 H       1  ZINC000182044395    0.0600
     41 H41       -12.1890   -0.1849   52.6140 H       1  ZINC000182044395    0.3700
     42 H42       -13.2160   -3.4205   53.1737 H       1  ZINC000182044395    0.0800
     43 H43       -14.4550   -2.1468   53.2791 H       1  ZINC000182044395    0.0800
     44 H44       -13.4483   -5.1726   54.6529 H       1  ZINC000182044395    0.1200
     45 H45       -14.2171   -6.0978   56.8014 H       1  ZINC000182044395    0.1200
     46 H46       -15.2861   -4.6279   58.4628 H       1  ZINC000182044395    0.1200
     47 H47       -15.5953   -2.2350   57.9716 H       1  ZINC000182044395    0.1200
     48 H48       -14.8198   -1.3083   55.8260 H       1  ZINC000182044395    0.1200
     49 H49        -4.2704   -0.0592   51.3377 H       1  ZINC000182044395    0.1500
     50 H50        -3.4416    3.9215   52.6293 H       1  ZINC000182044395    0.1500
     51 H51        -5.7155    4.1384   53.5203 H       1  ZINC000182044395    0.1500
@<TRIPOS>BOND
     1     1     2    1
     2     1    31    1
     3     1    32    1
     4     1    33    1
     5     2     3    1
     6     2    34    1
     7     2    35    1
     8     3    30    1
     9     3     4    1
    10     4     5    2
    11     4    36    1
    12     5     6    1
    13     5    22    1
    14     6     7    2
    15     6     8   am
    16     8     9    1
    17     8    37    1
    18     9    10    1
    19     9    11    1
    20     9    12    1
    21    11    38    1
    22    11    39    1
    23    11    40    1
    24    12    13    1
    25    12    14    1
    26    12    15    1
    27    14    41    1
    28    15    16    1
    29    15    42    1
    30    15    43    1
    31    16    21   ar
    32    16    17   ar
    33    17    18   ar
    34    17    44    1
    35    18    19   ar
    36    18    45    1
    37    19    20   ar
    38    19    46    1
    39    20    21   ar
    40    20    47    1
    41    21    48    1
    42    22    23    2
    43    22    24    1
    44    24    30   ar
    45    24    25   ar
    46    25    26   ar
    47    25    49    1
    48    26    27    1
    49    26    28   ar
    50    28    29   ar
    51    28    50    1
    52    29    30   ar
    53    29    51    1
@<TRIPOS>SUBSTRUCTURE
     1 ZINC000182044395        1 TEMP              0 ****  ****    0 ROOT


##########                                Name:    ZINC000816269301
##########                DOCK_Rotatable_Bonds:                   7
##########                         Heavy_Atoms:                  25
##########                    Molecular_Weight:             358.784
##########                DOCK_Rotatable_Bonds:                   7
##########                       Formal_Charge:           0.0100002
##########                     HBond_Acceptors:                   8
##########                        HBond_Donors:                   1
##########                         Heavy_Atoms:                  25
##########                          Grid_Score:          -34.082218
##########                     Grid_vdw_energy:          -32.996098
##########                      Grid_es_energy:           -1.086120
##########           Internal_energy_repulsive:            6.339886

@<TRIPOS>MOLECULE
ZINC000816269301
 40 42 1 0 0
SMALL
USER_CHARGES


@<TRIPOS>ATOM
      1 C1        -10.1398   -0.4134   52.8578 C.3     1  ZINC000816269301    0.1000
      2 N2         -8.7635   -0.5565   52.3765 N.pl3   1  ZINC000816269301   -0.4000
      3 N3         -8.2059   -1.6849   51.7584 N.2     1  ZINC000816269301    0.0000
      4 N4         -6.9740   -1.4524   51.4702 N.2     1  ZINC000816269301   -0.2000
      5 C5         -6.6324   -0.2009   51.8595 C.ar    1  ZINC000816269301   -0.0300
      6 C6         -5.4447    0.5312   51.7824 C.ar    1  ZINC000816269301    0.0500
      7 C7         -5.4046    1.8273   52.2823 C.ar    1  ZINC000816269301   -0.1400
      8 C8         -4.1540    2.6070   52.2041 C.2     1  ZINC000816269301    0.5200
      9 O9         -4.1193    3.7440   52.6305 O.2     1  ZINC000816269301   -0.5000
     10 O10        -3.0506    2.0578   51.6599 O.3     1  ZINC000816269301   -0.3500
     11 C11        -1.8038    2.7837   51.8233 C.3     1  ZINC000816269301    0.0500
     12 C12        -0.6592    1.9763   51.2077 C.3     1  ZINC000816269301    0.1200
     13 N13        -0.1810    2.6509   49.9984 N.am    1  ZINC000816269301   -0.7200
     14 C14        -0.8154    2.4599   48.8246 C.2     1  ZINC000816269301    0.5600
     15 O15        -1.7853    1.7291   48.7699 O.2     1  ZINC000816269301   -0.5300
     16 C16        -0.3320    3.1390   47.6044 C.ar    1  ZINC000816269301   -0.1300
     17 C17        -0.8335    2.7739   46.3537 C.ar    1  ZINC000816269301   -0.0700
     18 C18        -0.3785    3.4112   45.2186 C.ar    1  ZINC000816269301   -0.1200
     19 C19         0.5742    4.4118   45.3176 C.ar    1  ZINC000816269301   -0.0100
     20 Cl20        1.1418    5.2100   43.8843 Cl      1  ZINC000816269301   -0.0600
     21 C21         1.0755    4.7784   46.5557 C.ar    1  ZINC000816269301   -0.1200
     22 C22         0.6240    4.1523   47.6983 C.ar    1  ZINC000816269301   -0.0500
     23 C23        -6.5483    2.3975   52.8606 C.ar    1  ZINC000816269301   -0.0200
     24 C24        -7.7095    1.6883   52.9386 C.ar    1  ZINC000816269301   -0.1300
     25 C25        -7.7715    0.3901   52.4378 C.ar    1  ZINC000816269301    0.1100
     26 H26       -10.7658   -0.0200   52.0568 H       1  ZINC000816269301    0.0900
     27 H27       -10.5186   -1.3866   53.1702 H       1  ZINC000816269301    0.1000
     28 H28       -10.1592    0.2729   53.7044 H       1  ZINC000816269301    0.1000
     29 H29        -4.5637    0.0926   51.3375 H       1  ZINC000816269301    0.1600
     30 H30        -1.8773    3.7494   51.3231 H       1  ZINC000816269301    0.0800
     31 H31        -1.6097    2.9380   52.8847 H       1  ZINC000816269301    0.1000
     32 H32         0.1568    1.8968   51.9260 H       1  ZINC000816269301    0.1000
     33 H33        -1.0154    0.9788   50.9506 H       1  ZINC000816269301    0.0900
     34 H34         0.5921    3.2351   50.0423 H       1  ZINC000816269301    0.4000
     35 H35        -1.5761    1.9937   46.2752 H       1  ZINC000816269301    0.1400
     36 H36        -0.7655    3.1295   44.2505 H       1  ZINC000816269301    0.1400
     37 H37         1.8183    5.5592   46.6267 H       1  ZINC000816269301    0.1400
     38 H38         1.0153    4.4391   48.6632 H       1  ZINC000816269301    0.1500
     39 H39        -6.5083    3.4052   53.2471 H       1  ZINC000816269301    0.1500
     40 H40        -8.5850    2.1357   53.3856 H       1  ZINC000816269301    0.1400
@<TRIPOS>BOND
     1     1     2    1
     2     1    26    1
     3     1    27    1
     4     1    28    1
     5     2    25    1
     6     2     3    1
     7     3     4    2
     8     4     5    1
     9     5    25   ar
    10     5     6   ar
    11     6     7   ar
    12     6    29    1
    13     7     8    1
    14     7    23   ar
    15     8     9    2
    16     8    10    1
    17    10    11    1
    18    11    12    1
    19    11    30    1
    20    11    31    1
    21    12    13    1
    22    12    32    1
    23    12    33    1
    24    13    14   am
    25    13    34    1
    26    14    15    2
    27    14    16    1
    28    16    22   ar
    29    16    17   ar
    30    17    18   ar
    31    17    35    1
    32    18    19   ar
    33    18    36    1
    34    19    20    1
    35    19    21   ar
    36    21    22   ar
    37    21    37    1
    38    22    38    1
    39    23    24   ar
    40    23    39    1
    41    24    25   ar
    42    24    40    1
@<TRIPOS>SUBSTRUCTURE
     1 ZINC000816269301        1 TEMP              0 ****  ****    0 ROOT


##########                                Name:    ZINC000074782190
##########                DOCK_Rotatable_Bonds:                   9
##########                         Heavy_Atoms:                  25
##########                    Molecular_Weight:             341.453
##########                DOCK_Rotatable_Bonds:                   9
##########                       Formal_Charge:          -0.0200006
##########                     HBond_Acceptors:                   5
##########                        HBond_Donors:                   1
##########                         Heavy_Atoms:                  25
##########                          Grid_Score:          -34.062237
##########                     Grid_vdw_energy:          -34.425068
##########                      Grid_es_energy:            0.362832
##########           Internal_energy_repulsive:           28.124586

@<TRIPOS>MOLECULE
ZINC000074782190
 52 53 1 0 0
SMALL
USER_CHARGES


@<TRIPOS>ATOM
      1 C1         -8.4494    1.8214   53.9415 C.3     1  ZINC000074782190   -0.1100
      2 C2         -7.6753    0.8525   53.0853 C.ar    1  ZINC000074782190   -0.1200
      3 C3         -6.4395    1.2093   52.5821 C.ar    1  ZINC000074782190   -0.0800
      4 C4         -5.7289    0.3207   51.7960 C.ar    1  ZINC000074782190   -0.1500
      5 C5         -6.2531   -0.9266   51.5122 C.ar    1  ZINC000074782190   -0.0900
      6 C6         -7.4886   -1.2885   52.0135 C.ar    1  ZINC000074782190   -0.2100
      7 C7         -8.2010   -0.4010   52.8066 C.ar    1  ZINC000074782190    0.1300
      8 O8         -9.4166   -0.7546   53.3009 O.3     1  ZINC000074782190   -0.3000
      9 C9        -10.3944   -1.2018   52.3598 C.3     1  ZINC000074782190    0.0700
     10 H10       -10.0966   -0.9006   51.3555 H       1  ZINC000074782190    0.0800
     11 C11       -11.7503   -0.5790   52.6980 C.3     1  ZINC000074782190   -0.1800
     12 C12       -10.5035   -2.7266   52.4235 C.3     1  ZINC000074782190    0.1400
     13 N13       -10.7177   -3.1434   53.8115 N.am    1  ZINC000074782190   -0.7500
     14 C14       -11.8781   -3.7291   54.1678 C.2     1  ZINC000074782190    0.7100
     15 O15       -12.7471   -3.9116   53.3372 O.2     1  ZINC000074782190   -0.5900
     16 N16       -12.0752   -4.1125   55.4447 N.am    1  ZINC000074782190   -0.6200
     17 C17       -13.3365   -4.7492   55.8320 C.3     1  ZINC000074782190    0.1800
     18 C18       -14.2323   -3.7309   56.4890 C.ar    1  ZINC000074782190   -0.1600
     19 C19       -14.6179   -2.5892   55.8038 C.ar    1  ZINC000074782190   -0.0500
     20 C20       -15.4435   -1.6800   56.4479 C.ar    1  ZINC000074782190   -0.1800
     21 C21       -15.8515   -1.9405   57.7422 C.ar    1  ZINC000074782190    0.1000
     22 N22       -15.4648   -3.0377   58.3635 N.ar    1  ZINC000074782190   -0.4900
     23 C23       -14.6847   -3.9264   57.7805 C.ar    1  ZINC000074782190    0.1100
     24 C24       -11.0281   -3.8926   56.4455 C.3     1  ZINC000074782190    0.1300
     25 C25       -11.1254   -2.4620   56.9794 C.3     1  ZINC000074782190   -0.1800
     26 C26       -11.2097   -4.8809   57.5992 C.3     1  ZINC000074782190   -0.1800
     27 H27        -8.1802    1.6771   54.9878 H       1  ZINC000074782190    0.0700
     28 H28        -8.2102    2.8420   53.6422 H       1  ZINC000074782190    0.0600
     29 H29        -9.5175    1.6463   53.8137 H       1  ZINC000074782190    0.0700
     30 H30        -6.0279    2.1831   52.8026 H       1  ZINC000074782190    0.1300
     31 H31        -4.7631    0.6019   51.4030 H       1  ZINC000074782190    0.1200
     32 H32        -5.6963   -1.6186   50.8977 H       1  ZINC000074782190    0.1200
     33 H33        -7.8978   -2.2629   51.7912 H       1  ZINC000074782190    0.1300
     34 H34       -12.0481   -0.8802   53.7023 H       1  ZINC000074782190    0.0700
     35 H35       -11.6726    0.5073   52.6525 H       1  ZINC000074782190    0.0700
     36 H36       -12.4961   -0.9202   51.9801 H       1  ZINC000074782190    0.0800
     37 H37       -11.3427   -3.0567   51.8113 H       1  ZINC000074782190    0.0800
     38 H38        -9.5824   -3.1728   52.0482 H       1  ZINC000074782190    0.0900
     39 H39       -10.0244   -2.9978   54.4741 H       1  ZINC000074782190    0.4100
     40 H40       -13.8292   -5.1484   54.9455 H       1  ZINC000074782190    0.0900
     41 H41       -13.1343   -5.5603   56.5316 H       1  ZINC000074782190    0.1000
     42 H42       -14.2830   -2.4118   54.7925 H       1  ZINC000074782190    0.1400
     43 H43       -15.7631   -0.7796   55.9445 H       1  ZINC000074782190    0.1300
     44 H44       -16.4942   -1.2372   58.2509 H       1  ZINC000074782190    0.1600
     45 H45       -14.3888   -4.8133   58.3212 H       1  ZINC000074782190    0.1500
     46 H46       -10.0506   -4.0439   55.9878 H       1  ZINC000074782190    0.1000
     47 H47       -12.0659   -2.3376   57.5160 H       1  ZINC000074782190    0.0600
     48 H48       -10.2928   -2.2693   57.6560 H       1  ZINC000074782190    0.0700
     49 H49       -11.0866   -1.7600   56.1464 H       1  ZINC000074782190    0.0600
     50 H50       -11.0265   -5.8942   57.2418 H       1  ZINC000074782190    0.0700
     51 H51       -10.5043   -4.6433   58.3955 H       1  ZINC000074782190    0.0700
     52 H52       -12.2277   -4.8092   57.9823 H       1  ZINC000074782190    0.0700
@<TRIPOS>BOND
     1     1     2    1
     2     1    27    1
     3     1    28    1
     4     1    29    1
     5     2     7   ar
     6     2     3   ar
     7     3     4   ar
     8     3    30    1
     9     4     5   ar
    10     4    31    1
    11     5     6   ar
    12     5    32    1
    13     6     7   ar
    14     6    33    1
    15     7     8    1
    16     8     9    1
    17     9    10    1
    18     9    11    1
    19     9    12    1
    20    11    34    1
    21    11    35    1
    22    11    36    1
    23    12    13    1
    24    12    37    1
    25    12    38    1
    26    13    14   am
    27    13    39    1
    28    14    15    2
    29    14    16   am
    30    16    17    1
    31    16    24    1
    32    17    18    1
    33    17    40    1
    34    17    41    1
    35    18    23   ar
    36    18    19   ar
    37    19    20   ar
    38    19    42    1
    39    20    21   ar
    40    20    43    1
    41    21    22   ar
    42    21    44    1
    43    22    23   ar
    44    23    45    1
    45    24    25    1
    46    24    26    1
    47    24    46    1
    48    25    47    1
    49    25    48    1
    50    25    49    1
    51    26    50    1
    52    26    51    1
    53    26    52    1
@<TRIPOS>SUBSTRUCTURE
     1 ZINC000074782190        1 TEMP              0 ****  ****    0 ROOT


##########                                Name:    ZINC000624498741
##########                DOCK_Rotatable_Bonds:                   7
##########                         Heavy_Atoms:                  27
##########                    Molecular_Weight:             379.339
##########                DOCK_Rotatable_Bonds:                   7
##########                       Formal_Charge:           0.0300003
##########                     HBond_Acceptors:                   9
##########                        HBond_Donors:                   0
##########                         Heavy_Atoms:                  27
##########                          Grid_Score:          -34.036037
##########                     Grid_vdw_energy:          -32.797401
##########                      Grid_es_energy:           -1.238638
##########           Internal_energy_repulsive:           10.242161

@<TRIPOS>MOLECULE
ZINC000624498741
 43 45 1 0 0
SMALL
USER_CHARGES


@<TRIPOS>ATOM
      1 C1         -6.1492    4.2817   54.9411 C.3     1  ZINC000624498741   -0.1100
      2 C2         -5.8336    3.3196   53.8249 C.ar    1  ZINC000624498741   -0.0900
      3 C3         -6.6404    2.2236   53.6129 C.ar    1  ZINC000624498741   -0.0400
      4 C4         -6.3471    1.3325   52.5776 C.ar    1  ZINC000624498741   -0.0500
      5 C5         -7.2097    0.1565   52.3466 C.2     1  ZINC000624498741    0.2300
      6 N6         -8.5297    0.1208   52.4094 N.2     1  ZINC000624498741   -0.4700
      7 C7         -8.8689   -1.1467   52.1276 C.2     1  ZINC000624498741    0.1800
      8 C8        -10.2688   -1.7015   52.0711 C.3     1  ZINC000624498741   -0.0300
      9 C9        -10.4269   -2.7956   53.1288 C.3     1  ZINC000624498741   -0.1300
     10 C10       -11.4256   -3.8435   52.6334 C.3     1  ZINC000624498741    0.0900
     11 N11       -12.7857   -3.4252   52.9822 N.am    1  ZINC000624498741   -0.5000
     12 C12       -13.4174   -2.4947   52.2218 C.2     1  ZINC000624498741    0.1300
     13 C13       -14.6738   -2.0923   52.5243 C.2     1  ZINC000624498741   -0.2300
     14 C14       -15.3357   -2.6381   53.6331 C.2     1  ZINC000624498741   -0.0200
     15 C15       -14.6994   -3.5731   54.3956 C.2     1  ZINC000624498741   -0.2400
     16 C16       -13.3970   -3.9721   54.0501 C.2     1  ZINC000624498741    0.5100
     17 O17       -12.8161   -4.8079   54.7238 O.2     1  ZINC000624498741   -0.5500
     18 N18        -7.7711   -1.8095   51.9113 N.2     1  ZINC000624498741   -0.3700
     19 O19        -6.8067   -1.0831   52.0260 O.3     1  ZINC000624498741    0.0900
     20 C20        -5.2361    1.5572   51.7615 C.ar    1  ZINC000624498741   -0.0200
     21 C21        -4.4341    2.6559   51.9802 C.ar    1  ZINC000624498741   -0.1900
     22 C22        -4.7322    3.5425   53.0075 C.ar    1  ZINC000624498741    0.1300
     23 O23        -3.9392    4.6240   53.2197 O.3     1  ZINC000624498741   -0.3000
     24 C24        -2.6411    4.3797   53.7650 C.3     1  ZINC000624498741    0.6000
     25 F25        -2.4806    5.1244   54.9384 F       1  ZINC000624498741   -0.1600
     26 F26        -2.5058    3.0178   54.0549 F       1  ZINC000624498741   -0.1300
     27 F27        -1.6662    4.7578   52.8357 F       1  ZINC000624498741   -0.1600
     28 H28        -6.8117    5.0638   54.5702 H       1  ZINC000624498741    0.0800
     29 H29        -6.6389    3.7465   55.7546 H       1  ZINC000624498741    0.0800
     30 H30        -5.2254    4.7308   55.3058 H       1  ZINC000624498741    0.0800
     31 H31        -7.4983    2.0531   54.2463 H       1  ZINC000624498741    0.1500
     32 H32       -10.9844   -0.9025   52.2652 H       1  ZINC000624498741    0.1000
     33 H33       -10.4533   -2.1223   51.0827 H       1  ZINC000624498741    0.1000
     34 H34        -9.4619   -3.2698   53.3082 H       1  ZINC000624498741    0.0800
     35 H35       -10.7930   -2.3546   54.0559 H       1  ZINC000624498741    0.0800
     36 H36       -11.3421   -3.9419   51.5512 H       1  ZINC000624498741    0.1100
     37 H37       -11.2088   -4.8028   53.1034 H       1  ZINC000624498741    0.1000
     38 H38       -12.9121   -2.0711   51.3665 H       1  ZINC000624498741    0.1600
     39 H39       -15.1658   -1.3507   51.9123 H       1  ZINC000624498741    0.1500
     40 H40       -16.3381   -2.3216   53.8809 H       1  ZINC000624498741    0.1400
     41 H41       -15.1930   -4.0052   55.2537 H       1  ZINC000624498741    0.1500
     42 H42        -5.0058    0.8704   50.9605 H       1  ZINC000624498741    0.1500
     43 H43        -3.5746    2.8302   51.3498 H       1  ZINC000624498741    0.1500
@<TRIPOS>BOND
     1     1     2    1
     2     1    28    1
     3     1    29    1
     4     1    30    1
     5     2    22   ar
     6     2     3   ar
     7     3     4   ar
     8     3    31    1
     9     4     5    1
    10     4    20   ar
    11     5    19    1
    12     5     6    2
    13     6     7    1
    14     7     8    1
    15     7    18    2
    16     8     9    1
    17     8    32    1
    18     8    33    1
    19     9    10    1
    20     9    34    1
    21     9    35    1
    22    10    11    1
    23    10    36    1
    24    10    37    1
    25    11    16   am
    26    11    12    1
    27    12    13    2
    28    12    38    1
    29    13    14    1
    30    13    39    1
    31    14    15    2
    32    14    40    1
    33    15    16    1
    34    15    41    1
    35    16    17    2
    36    18    19    1
    37    20    21   ar
    38    20    42    1
    39    21    22   ar
    40    21    43    1
    41    22    23    1
    42    23    24    1
    43    24    25    1
    44    24    26    1
    45    24    27    1
@<TRIPOS>SUBSTRUCTURE
     1 ZINC000624498741        1 TEMP              0 ****  ****    0 ROOT


##########                                Name:    ZINC000541252362
##########                DOCK_Rotatable_Bonds:                   5
##########                         Heavy_Atoms:                  27
##########                    Molecular_Weight:             401.254
##########                DOCK_Rotatable_Bonds:                   5
##########                       Formal_Charge:          -0.0199999
##########                     HBond_Acceptors:                   9
##########                        HBond_Donors:                   1
##########                         Heavy_Atoms:                  27
##########                          Grid_Score:          -34.006210
##########                     Grid_vdw_energy:          -33.578354
##########                      Grid_es_energy:           -0.427856
##########           Internal_energy_repulsive:            3.585818

@<TRIPOS>MOLECULE
ZINC000541252362
 41 44 1 0 0
SMALL
USER_CHARGES


@<TRIPOS>ATOM
      1 C1         -8.8016   -0.8038   61.2258 C.3     1  ZINC000541252362    0.1000
      2 N2         -9.9718   -1.4010   60.5774 N.pl3   1  ZINC000541252362   -0.3800
      3 C3        -11.1345   -1.7355   61.1655 C.2     1  ZINC000541252362    0.2600
      4 N4        -11.9254   -2.2377   60.2545 N.2     1  ZINC000541252362   -0.5300
      5 C5        -11.3045   -2.2419   59.0674 C.2     1  ZINC000541252362    0.2700
      6 C6        -11.8805   -2.7351   57.7917 C.ar    1  ZINC000541252362    0.0000
      7 C7        -13.1776   -3.2435   57.7612 C.ar    1  ZINC000541252362   -0.1000
      8 C8        -13.7124   -3.7017   56.5735 C.ar    1  ZINC000541252362   -0.1000
      9 C9        -12.9649   -3.6583   55.4122 C.ar    1  ZINC000541252362   -0.1300
     10 C10       -11.6706   -3.1528   55.4333 C.ar    1  ZINC000541252362    0.1400
     11 N11       -10.9164   -3.1104   54.2553 N.am    1  ZINC000541252362   -0.6800
     12 C12       -11.2120   -2.2092   53.2978 C.2     1  ZINC000541252362    0.5100
     13 O13       -12.1319   -1.4349   53.4571 O.2     1  ZINC000541252362   -0.4900
     14 C14       -10.3998   -2.1635   52.0293 C.3     1  ZINC000541252362   -0.0600
     15 C15        -9.3120   -1.1296   52.1661 C.2     1  ZINC000541252362    0.0700
     16 C16        -8.0323   -1.2726   51.7565 C.2     1  ZINC000541252362   -0.0700
     17 N17        -7.3772   -0.1118   52.0647 N.pl3   1  ZINC000541252362   -0.3500
     18 C18        -6.0863    0.2964   51.8839 C.2     1  ZINC000541252362    0.0700
     19 C19        -5.6890    1.5212   52.2904 C.2     1  ZINC000541252362   -0.0500
     20 Cl20       -4.0435    2.0198   52.0507 Cl      1  ZINC000541252362   -0.0200
     21 C21        -6.6020    2.3944   52.9062 C.2     1  ZINC000541252362   -0.0900
     22 C22        -7.8914    1.9999   53.0919 C.2     1  ZINC000541252362    0.0200
     23 Cl23       -9.0335    3.0650   53.8502 Cl      1  ZINC000541252362   -0.0100
     24 C24        -8.2902    0.7173   52.6621 C.2     1  ZINC000541252362    0.2200
     25 N25        -9.4534    0.0827   52.7069 N.2     1  ZINC000541252362   -0.4300
     26 C26       -11.1285   -2.6856   56.6209 C.ar    1  ZINC000541252362   -0.0800
     27 N27       -10.1022   -1.7312   59.2187 N.2     1  ZINC000541252362   -0.3100
     28 H28        -8.8837    0.2826   61.1939 H       1  ZINC000541252362    0.0800
     29 H29        -8.7531   -1.1342   62.2633 H       1  ZINC000541252362    0.0900
     30 H30        -7.8977   -1.1154   60.7024 H       1  ZINC000541252362    0.0900
     31 H31       -11.3733   -1.6106   62.2114 H       1  ZINC000541252362    0.2200
     32 H32       -13.7646   -3.2797   58.6671 H       1  ZINC000541252362    0.1300
     33 H33       -14.7179   -4.0954   56.5521 H       1  ZINC000541252362    0.1300
     34 H34       -13.3874   -4.0185   54.4859 H       1  ZINC000541252362    0.1300
     35 H35       -10.1808   -3.7298   54.1279 H       1  ZINC000541252362    0.4100
     36 H36        -9.9516   -3.1408   51.8495 H       1  ZINC000541252362    0.1200
     37 H37       -11.0472   -1.9014   51.1925 H       1  ZINC000541252362    0.1200
     38 H38        -7.6062   -2.1411   51.2763 H       1  ZINC000541252362    0.1900
     39 H39        -5.3768   -0.3669   51.4116 H       1  ZINC000541252362    0.1800
     40 H40        -6.2820    3.3735   53.2308 H       1  ZINC000541252362    0.1600
     41 H41       -10.1229   -2.2921   56.6394 H       1  ZINC000541252362    0.1500
@<TRIPOS>BOND
     1     1     2    1
     2     1    28    1
     3     1    29    1
     4     1    30    1
     5     2    27    1
     6     2     3    1
     7     3     4    2
     8     3    31    1
     9     4     5    1
    10     5     6    1
    11     5    27    2
    12     6    26   ar
    13     6     7   ar
    14     7     8   ar
    15     7    32    1
    16     8     9   ar
    17     8    33    1
    18     9    10   ar
    19     9    34    1
    20    10    11    1
    21    10    26   ar
    22    11    12   am
    23    11    35    1
    24    12    13    2
    25    12    14    1
    26    14    15    1
    27    14    36    1
    28    14    37    1
    29    15    25    1
    30    15    16    2
    31    16    17    1
    32    16    38    1
    33    17    24    1
    34    17    18    1
    35    18    19    2
    36    18    39    1
    37    19    20    1
    38    19    21    1
    39    21    22    2
    40    21    40    1
    41    22    23    1
    42    22    24    1
    43    24    25    2
    44    26    41    1
@<TRIPOS>SUBSTRUCTURE
     1 ZINC000541252362        1 TEMP              0 ****  ****    0 ROOT


##########                                Name:    ZINC000174621331
##########                DOCK_Rotatable_Bonds:                   8
##########                         Heavy_Atoms:                  25
##########                    Molecular_Weight:             366.438
##########                DOCK_Rotatable_Bonds:                   8
##########                       Formal_Charge:        -5.96046e-08
##########                     HBond_Acceptors:                   8
##########                        HBond_Donors:                   3
##########                         Heavy_Atoms:                  25
##########                          Grid_Score:          -33.982193
##########                     Grid_vdw_energy:          -32.124130
##########                      Grid_es_energy:           -1.858061
##########           Internal_energy_repulsive:           12.234674

@<TRIPOS>MOLECULE
ZINC000174621331
 47 48 1 0 0
SMALL
USER_CHARGES


@<TRIPOS>ATOM
      1 C1         -1.1430    3.5445   56.4960 C.3     1  ZINC000174621331    0.0300
      2 O2         -1.4435    3.7143   55.1093 O.3     1  ZINC000174621331   -0.3800
      3 C3         -2.6233    3.0303   54.6823 C.3     1  ZINC000174621331    0.0500
      4 C4         -2.8469    3.2823   53.1899 C.3     1  ZINC000174621331    0.2400
      5 H5         -2.7786    4.3512   52.9876 H       1  ZINC000174621331    0.1300
      6 N6         -1.8251    2.5726   52.4163 N.am    1  ZINC000174621331   -0.7200
      7 C7         -1.6900    2.8140   51.0972 C.2     1  ZINC000174621331    0.5600
      8 O8         -2.4169    3.6194   50.5492 O.2     1  ZINC000174621331   -0.5300
      9 C9         -0.6577    2.0991   50.3168 C.ar    1  ZINC000174621331   -0.1600
     10 C10         0.4278    1.5088   50.9657 C.ar    1  ZINC000174621331   -0.0200
     11 C11         1.3875    0.8428   50.2315 C.ar    1  ZINC000174621331   -0.1100
     12 C12         2.5603    0.2047   50.9304 C.3     1  ZINC000174621331   -0.1200
     13 C13         1.2753    0.7590   48.8552 C.ar    1  ZINC000174621331    0.0400
     14 C14         2.3271    0.0294   48.0598 C.3     1  ZINC000174621331   -0.1600
     15 C15         0.2013    1.3417   48.2057 C.ar    1  ZINC000174621331   -0.6800
     16 S16         0.0677    1.2286   46.4523 S.o2    1  ZINC000174621331    2.7000
     17 N17        -1.4549    1.7351   46.0430 N.am    1  ZINC000174621331   -1.2500
     18 O18         0.9676    2.1900   45.9185 O.2     1  ZINC000174621331   -0.9500
     19 O19         0.1296   -0.1549   46.1338 O.2     1  ZINC000174621331   -0.9600
     20 C20        -0.7673    2.0067   48.9282 C.ar    1  ZINC000174621331    0.0400
     21 C21        -4.2128    2.7827   52.7952 C.2     1  ZINC000174621331   -0.0200
     22 C22        -5.3655    3.4655   52.9162 C.2     1  ZINC000174621331   -0.1900
     23 C23        -6.3925    2.6252   52.4284 C.2     1  ZINC000174621331   -0.2100
     24 C24        -5.8061    1.4791   52.0385 C.2     1  ZINC000174621331    0.0000
     25 C25        -6.5109    0.2846   51.4490 C.3     1  ZINC000174621331   -0.0800
     26 O26        -4.4850    1.5824   52.2576 O.3     1  ZINC000174621331   -0.1600
     27 H27        -1.9699    3.9242   57.0962 H       1  ZINC000174621331    0.0400
     28 H28        -0.9958    2.4856   56.7089 H       1  ZINC000174621331    0.0400
     29 H29        -0.2340    4.0941   56.7408 H       1  ZINC000174621331    0.0900
     30 H30        -2.5065    1.9608   54.8567 H       1  ZINC000174621331    0.0700
     31 H31        -3.4808    3.3988   55.2454 H       1  ZINC000174621331    0.0700
     32 H32        -1.2458    1.9290   52.8534 H       1  ZINC000174621331    0.4100
     33 H33         0.5165    1.5735   52.0401 H       1  ZINC000174621331    0.1400
     34 H34         2.3104   -0.8227   51.1953 H       1  ZINC000174621331    0.0800
     35 H35         3.4250    0.2088   50.2668 H       1  ZINC000174621331    0.0800
     36 H36         2.7938    0.7665   51.8349 H       1  ZINC000174621331    0.0700
     37 H37         2.0479   -1.0200   47.9648 H       1  ZINC000174621331    0.1100
     38 H38         2.4074    0.4754   47.0685 H       1  ZINC000174621331    0.0700
     39 H39         3.2868    0.1052   48.5711 H       1  ZINC000174621331    0.0900
     40 H40        -1.7277    1.7485   45.1123 H       1  ZINC000174621331    0.4200
     41 H41        -2.0738    2.0185   46.7340 H       1  ZINC000174621331    0.4200
     42 H42        -1.6053    2.4608   48.4201 H       1  ZINC000174621331    0.1600
     43 H43        -5.4837    4.4638   53.3107 H       1  ZINC000174621331    0.1500
     44 H44        -7.4458    2.8585   52.3787 H       1  ZINC000174621331    0.1500
     45 H45        -6.5496    0.3844   50.3643 H       1  ZINC000174621331    0.0800
     46 H46        -5.9680   -0.6235   51.7112 H       1  ZINC000174621331    0.0800
     47 H47        -7.5248    0.2289   51.8452 H       1  ZINC000174621331    0.0900
@<TRIPOS>BOND
     1     1     2    1
     2     1    27    1
     3     1    28    1
     4     1    29    1
     5     2     3    1
     6     3     4    1
     7     3    30    1
     8     3    31    1
     9     4     5    1
    10     4     6    1
    11     4    21    1
    12     6     7   am
    13     6    32    1
    14     7     8    2
    15     7     9    1
    16     9    20   ar
    17     9    10   ar
    18    10    11   ar
    19    10    33    1
    20    11    12    1
    21    11    13   ar
    22    12    34    1
    23    12    35    1
    24    12    36    1
    25    13    14    1
    26    13    15   ar
    27    14    37    1
    28    14    38    1
    29    14    39    1
    30    15    16    1
    31    15    20   ar
    32    16    17   am
    33    16    18    2
    34    16    19    2
    35    17    40    1
    36    17    41    1
    37    20    42    1
    38    21    26    1
    39    21    22    2
    40    22    23    1
    41    22    43    1
    42    23    24    2
    43    23    44    1
    44    24    25    1
    45    24    26    1
    46    25    45    1
    47    25    46    1
    48    25    47    1
@<TRIPOS>SUBSTRUCTURE
     1 ZINC000174621331        1 TEMP              0 ****  ****    0 ROOT


##########                                Name:    ZINC000599797189
##########                DOCK_Rotatable_Bonds:                  13
##########                         Heavy_Atoms:                  23
##########                    Molecular_Weight:             329.313
##########                DOCK_Rotatable_Bonds:                  13
##########                       Formal_Charge:          0.00999949
##########                     HBond_Acceptors:                  11
##########                        HBond_Donors:                   3
##########                         Heavy_Atoms:                  23
##########                          Grid_Score:          -33.978806
##########                     Grid_vdw_energy:          -28.112631
##########                      Grid_es_energy:           -5.866173
##########           Internal_energy_repulsive:            7.329446

@<TRIPOS>MOLECULE
ZINC000599797189
 42 42 1 0 0
SMALL
USER_CHARGES


@<TRIPOS>ATOM
      1 C1         -0.3863   -0.4079   46.6588 C.3     1  ZINC000599797189   -0.1500
      2 C2         -1.0325    0.7385   47.4396 C.3     1  ZINC000599797189    0.0600
      3 O3         -0.5735    0.7052   48.8167 O.3     1  ZINC000599797189   -0.3600
      4 C4         -0.7032    1.8349   49.5297 C.2     1  ZINC000599797189    0.4500
      5 O5          0.2632    2.3277   50.0618 O.2     1  ZINC000599797189   -0.4800
      6 C6         -2.0541    2.4887   49.6667 C.3     1  ZINC000599797189    0.1500
      7 N7         -2.1660    3.1058   50.9907 N.pl3   1  ZINC000599797189   -0.3800
      8 C8         -2.2656    4.4184   51.2604 C.2     1  ZINC000599797189    0.2800
      9 N9         -2.3463    4.5639   52.5585 N.2     1  ZINC000599797189   -0.5100
     10 C10        -2.3015    3.3672   53.1514 C.2     1  ZINC000599797189    0.4700
     11 N11        -2.3623    3.1387   54.5300 N.am    1  ZINC000599797189   -0.6400
     12 C12        -1.3464    3.5317   55.3238 C.2     1  ZINC000599797189    0.7100
     13 O13        -0.3763    4.0834   54.8413 O.2     1  ZINC000599797189   -0.5300
     14 N14        -1.4058    3.3129   56.6523 N.am    1  ZINC000599797189   -0.7300
     15 C15        -0.3024    3.7417   57.5154 C.3     1  ZINC000599797189    0.1100
     16 C16        -0.4417    3.0803   58.8879 C.3     1  ZINC000599797189    0.1100
     17 H17         0.4791    3.2206   59.4540 H       1  ZINC000599797189    0.1200
     18 O18        -1.5313    3.6760   59.5952 O.3     1  ZINC000599797189   -0.5400
     19 C19        -0.7073    1.5842   58.7087 C.3     1  ZINC000599797189   -0.1500
     20 C20        -0.2622    0.8435   59.9432 C.2     1  ZINC000599797189    0.4600
     21 O21         0.6548    1.2689   60.6053 O.2     1  ZINC000599797189   -0.4900
     22 O22        -0.8843   -0.2887   60.3074 O.3     1  ZINC000599797189   -0.3600
     23 C23        -0.2349   -1.1010   61.3209 C.3     1  ZINC000599797189    0.0400
     24 N24        -2.1962    2.4418   52.2278 N.2     1  ZINC000599797189   -0.3200
     25 H25        -0.7309   -0.3829   45.6250 H       1  ZINC000599797189    0.0800
     26 H26         0.6978   -0.2984   46.6834 H       1  ZINC000599797189    0.0700
     27 H27        -0.6658   -1.3590   47.1120 H       1  ZINC000599797189    0.0700
     28 H28        -0.7530    1.6896   46.9864 H       1  ZINC000599797189    0.0700
     29 H29        -2.1167    0.6289   47.4151 H       1  ZINC000599797189    0.0700
     30 H30        -2.1671    3.2537   48.8986 H       1  ZINC000599797189    0.1500
     31 H31        -2.8349    1.7374   49.5490 H       1  ZINC000599797189    0.1300
     32 H32        -2.2769    5.2155   50.5319 H       1  ZINC000599797189    0.2300
     33 H33        -3.1357    2.6975   54.9149 H       1  ZINC000599797189    0.4200
     34 H34        -2.1793    2.8717   57.0372 H       1  ZINC000599797189    0.4000
     35 H35         0.6460    3.4483   57.0652 H       1  ZINC000599797189    0.0800
     36 H36        -0.3304    4.8253   57.6297 H       1  ZINC000599797189    0.0800
     37 H37        -2.3682    3.6641   59.1108 H       1  ZINC000599797189    0.3800
     38 H38        -1.7734    1.4207   58.5514 H       1  ZINC000599797189    0.1200
     39 H39        -0.1522    1.2176   57.8451 H       1  ZINC000599797189    0.1200
     40 H40         0.7483   -1.4085   60.9650 H       1  ZINC000599797189    0.0600
     41 H41        -0.1246   -0.5199   62.2365 H       1  ZINC000599797189    0.0600
     42 H42        -0.8413   -1.9842   61.5219 H       1  ZINC000599797189    0.1000
@<TRIPOS>BOND
     1     1     2    1
     2     1    25    1
     3     1    26    1
     4     1    27    1
     5     2     3    1
     6     2    28    1
     7     2    29    1
     8     3     4    1
     9     4     5    2
    10     4     6    1
    11     6     7    1
    12     6    30    1
    13     6    31    1
    14     7    24    1
    15     7     8    1
    16     8     9    2
    17     8    32    1
    18     9    10    1
    19    10    11    1
    20    10    24    2
    21    11    12   am
    22    11    33    1
    23    12    13    2
    24    12    14   am
    25    14    15    1
    26    14    34    1
    27    15    16    1
    28    15    35    1
    29    15    36    1
    30    16    17    1
    31    16    18    1
    32    16    19    1
    33    18    37    1
    34    19    20    1
    35    19    38    1
    36    19    39    1
    37    20    21    2
    38    20    22    1
    39    22    23    1
    40    23    40    1
    41    23    41    1
    42    23    42    1
@<TRIPOS>SUBSTRUCTURE
     1 ZINC000599797189        1 TEMP              0 ****  ****    0 ROOT


##########                                Name:    ZINC000058174787
##########                DOCK_Rotatable_Bonds:                   9
##########                         Heavy_Atoms:                  27
##########                    Molecular_Weight:             413.882
##########                DOCK_Rotatable_Bonds:                   9
##########                       Formal_Charge:           0.0200002
##########                     HBond_Acceptors:                  10
##########                        HBond_Donors:                   1
##########                         Heavy_Atoms:                  27
##########                          Grid_Score:          -33.966747
##########                     Grid_vdw_energy:          -34.141087
##########                      Grid_es_energy:            0.174339
##########           Internal_energy_repulsive:            3.232941

@<TRIPOS>MOLECULE
ZINC000058174787
 47 48 1 0 0
SMALL
USER_CHARGES


@<TRIPOS>ATOM
      1 C1        -10.7602   -2.1951   59.2415 C.3     1  ZINC000058174787   -0.0700
      2 C2        -12.0067   -2.6829   58.5490 C.2     1  ZINC000058174787    0.2100
      3 N3        -12.0397   -3.4313   57.4804 N.2     1  ZINC000058174787   -0.4200
      4 C4        -13.3167   -3.6689   57.1460 C.2     1  ZINC000058174787   -0.5600
      5 S5        -13.8666   -4.6301   55.7755 S.o2    1  ZINC000058174787    2.7400
      6 O6        -13.8197   -5.9876   56.1930 O.2     1  ZINC000058174787   -0.9500
      7 O7        -15.0489   -4.0049   55.2955 O.2     1  ZINC000058174787   -0.9600
      8 N8        -12.7337   -4.4697   54.5783 N.am    1  ZINC000058174787   -1.1100
      9 C9        -12.4312   -3.1458   54.0287 C.3     1  ZINC000058174787    0.1300
     10 C10       -11.0355   -3.1606   53.4020 C.3     1  ZINC000058174787   -0.1200
     11 C11       -10.8651   -1.9460   52.5266 C.2     1  ZINC000058174787    0.4700
     12 O12       -10.6392   -2.0782   51.3470 O.2     1  ZINC000058174787   -0.5000
     13 O13       -10.9643   -0.7169   53.0572 O.3     1  ZINC000058174787   -0.3300
     14 C14        -9.7471   -0.1263   53.5843 C.3     1  ZINC000058174787    0.0400
     15 H15        -8.9801   -0.8953   53.6759 H       1  ZINC000058174787    0.1200
     16 C16       -10.0287    0.4797   54.9606 C.3     1  ZINC000058174787   -0.1700
     17 C17        -9.2666    0.9532   52.6488 C.2     1  ZINC000058174787    0.4000
     18 O18       -10.0675    1.6744   52.0929 O.2     1  ZINC000058174787   -0.4200
     19 C19        -7.8263    1.1322   52.4102 C.ar    1  ZINC000058174787   -0.1600
     20 C20        -7.0813    0.1117   51.8094 C.ar    1  ZINC000058174787   -0.0600
     21 C21        -5.7323    0.2865   51.5885 C.ar    1  ZINC000058174787   -0.1200
     22 C22        -5.1136    1.4695   51.9598 C.ar    1  ZINC000058174787    0.0000
     23 Cl23       -3.4140    1.6812   51.6771 Cl      1  ZINC000058174787   -0.0500
     24 C24        -5.8452    2.4846   52.5553 C.ar    1  ZINC000058174787   -0.1200
     25 C25        -7.1960    2.3259   52.7776 C.ar    1  ZINC000058174787   -0.0400
     26 C26       -14.1049   -3.0438   58.0414 C.2     1  ZINC000058174787    0.0700
     27 N27       -13.2745   -2.4227   58.9347 N.pl3   1  ZINC000058174787   -0.4500
     28 C28       -13.6843   -1.6186   60.0886 C.3     1  ZINC000058174787    0.0600
     29 H29       -10.4548   -2.9219   59.9943 H       1  ZINC000058174787    0.0900
     30 H30        -9.9619   -2.0730   58.5094 H       1  ZINC000058174787    0.1000
     31 H31       -10.9624   -1.2377   59.7218 H       1  ZINC000058174787    0.0800
     32 H32       -12.2705   -5.2523   54.2410 H       1  ZINC000058174787    0.4200
     33 H33       -13.1686   -2.8912   53.2675 H       1  ZINC000058174787    0.0900
     34 H34       -12.4628   -2.4048   54.8276 H       1  ZINC000058174787    0.0900
     35 H35       -10.2830   -3.1488   54.1904 H       1  ZINC000058174787    0.1200
     36 H36       -10.9170   -4.0617   52.8001 H       1  ZINC000058174787    0.1200
     37 H37       -10.7956    1.2488   54.8689 H       1  ZINC000058174787    0.0800
     38 H38       -10.3761   -0.3011   55.6372 H       1  ZINC000058174787    0.0800
     39 H39        -9.1149    0.9231   55.3563 H       1  ZINC000058174787    0.0800
     40 H40        -7.5621   -0.8110   51.5200 H       1  ZINC000058174787    0.1400
     41 H41        -5.1558   -0.5006   51.1252 H       1  ZINC000058174787    0.1400
     42 H42        -5.3564    3.4039   52.8421 H       1  ZINC000058174787    0.1400
     43 H43        -7.7650    3.1179   53.2414 H       1  ZINC000058174787    0.1500
     44 H44       -15.1849   -3.0375   58.0545 H       1  ZINC000058174787    0.1900
     45 H45       -13.7872   -2.2625   60.9620 H       1  ZINC000058174787    0.0900
     46 H46       -12.9308   -0.8562   60.2862 H       1  ZINC000058174787    0.1000
     47 H47       -14.6397   -1.1388   59.8763 H       1  ZINC000058174787    0.0900
@<TRIPOS>BOND
     1     1     2    1
     2     1    29    1
     3     1    30    1
     4     1    31    1
     5     2    27    1
     6     2     3    2
     7     3     4    1
     8     4     5    1
     9     4    26    2
    10     5     6    2
    11     5     7    2
    12     5     8   am
    13     8     9    1
    14     8    32    1
    15     9    10    1
    16     9    33    1
    17     9    34    1
    18    10    11    1
    19    10    35    1
    20    10    36    1
    21    11    12    2
    22    11    13    1
    23    13    14    1
    24    14    15    1
    25    14    16    1
    26    14    17    1
    27    16    37    1
    28    16    38    1
    29    16    39    1
    30    17    18    2
    31    17    19    1
    32    19    25   ar
    33    19    20   ar
    34    20    21   ar
    35    20    40    1
    36    21    22   ar
    37    21    41    1
    38    22    23    1
    39    22    24   ar
    40    24    25   ar
    41    24    42    1
    42    25    43    1
    43    26    27    1
    44    26    44    1
    45    27    28    1
    46    28    45    1
    47    28    46    1
    48    28    47    1
@<TRIPOS>SUBSTRUCTURE
     1 ZINC000058174787        1 TEMP              0 ****  ****    0 ROOT


##########                                Name:    ZINC000481838178
##########                DOCK_Rotatable_Bonds:                   6
##########                         Heavy_Atoms:                  29
##########                    Molecular_Weight:             408.524
##########                DOCK_Rotatable_Bonds:                   6
##########                       Formal_Charge:         -0.00999962
##########                     HBond_Acceptors:                   7
##########                        HBond_Donors:                   0
##########                         Heavy_Atoms:                  29
##########                          Grid_Score:          -33.903057
##########                     Grid_vdw_energy:          -33.943165
##########                      Grid_es_energy:            0.040108
##########           Internal_energy_repulsive:            7.945515

@<TRIPOS>MOLECULE
ZINC000481838178
 53 57 1 0 0
SMALL
USER_CHARGES


@<TRIPOS>ATOM
      1 O1         -1.6403    4.5251   52.0422 O.2     1  ZINC000481838178   -0.5200
      2 C2         -1.8585    3.4129   51.6105 C.2     1  ZINC000481838178    0.5500
      3 C3         -2.7672    2.4768   52.3648 C.3     1  ZINC000481838178   -0.1500
      4 S4         -4.4035    3.2315   52.5355 S.3     1  ZINC000481838178    0.1000
      5 C5         -5.4187    1.8002   52.3771 C.2     1  ZINC000481838178    0.1600
      6 N6         -5.0682    0.6512   51.8446 N.2     1  ZINC000481838178   -0.2800
      7 N7         -6.0496   -0.1769   51.8899 N.2     1  ZINC000481838178   -0.2500
      8 C8         -7.0922    0.3914   52.4557 C.2     1  ZINC000481838178    0.2700
      9 C9         -8.4055   -0.2273   52.6915 C.2     1  ZINC000481838178    0.0300
     10 C10        -8.8264   -1.4253   52.1963 C.2     1  ZINC000481838178   -0.1300
     11 C11       -10.1373   -1.6223   52.6716 C.2     1  ZINC000481838178   -0.2100
     12 C12       -10.4506   -0.5493   53.4249 C.2     1  ZINC000481838178   -0.0100
     13 O13        -9.4007    0.2887   53.4397 O.3     1  ZINC000481838178   -0.1700
     14 N14        -6.7178    1.6761   52.7914 N.pl3   1  ZINC000481838178   -0.4100
     15 C15        -7.5051    2.6524   53.4171 C.ar    1  ZINC000481838178    0.1000
     16 C16        -7.3727    2.8848   54.7794 C.ar    1  ZINC000481838178   -0.0800
     17 C17        -8.1501    3.8475   55.3932 C.ar    1  ZINC000481838178   -0.1100
     18 C18        -9.0594    4.5796   54.6522 C.ar    1  ZINC000481838178   -0.1000
     19 C19        -9.1936    4.3505   53.2950 C.ar    1  ZINC000481838178   -0.1100
     20 C20        -8.4150    3.3931   52.6746 C.ar    1  ZINC000481838178   -0.0900
     21 N21        -1.2928    3.0160   50.4534 N.am    1  ZINC000481838178   -0.6200
     22 C22        -1.4791    1.6923   49.8010 C.3     1  ZINC000481838178    0.1000
     23 C23        -1.2045    1.9903   48.3222 C.3     1  ZINC000481838178   -0.1100
     24 H24        -2.0390    2.5262   47.8700 H       1  ZINC000481838178    0.0900
     25 C25        -0.7916    0.8083   47.4655 C.3     1  ZINC000481838178   -0.1100
     26 C26        -0.4580    1.3574   46.0684 C.3     1  ZINC000481838178   -0.1200
     27 C27         0.6386    2.4161   46.1267 C.3     1  ZINC000481838178   -0.1200
     28 C28         0.2869    3.5421   47.1138 C.3     1  ZINC000481838178   -0.1000
     29 C29         0.0451    2.9104   48.4652 C.3     1  ZINC000481838178   -0.1100
     30 H30         0.9037    2.3032   48.7519 H       1  ZINC000481838178    0.0900
     31 C31        -0.3818    3.8269   49.6077 C.3     1  ZINC000481838178    0.1200
     32 H32        -2.8556    1.5375   51.8187 H       1  ZINC000481838178    0.1300
     33 H33        -2.3510    2.2844   53.3536 H       1  ZINC000481838178    0.1300
     34 H34        -8.2637   -2.0939   51.5616 H       1  ZINC000481838178    0.1600
     35 H35       -10.7719   -2.4725   52.4704 H       1  ZINC000481838178    0.1600
     36 H36       -11.3889   -0.3914   53.9358 H       1  ZINC000481838178    0.2100
     37 H37        -6.6629    2.3130   55.3587 H       1  ZINC000481838178    0.1300
     38 H38        -8.0476    4.0284   56.4529 H       1  ZINC000481838178    0.1400
     39 H39        -9.6663    5.3316   55.1343 H       1  ZINC000481838178    0.1300
     40 H40        -9.9050    4.9236   52.7190 H       1  ZINC000481838178    0.1400
     41 H41        -8.5202    3.2146   51.6146 H       1  ZINC000481838178    0.1300
     42 H42        -0.7617    0.9683   50.1874 H       1  ZINC000481838178    0.0800
     43 H43        -2.4998    1.3356   49.9386 H       1  ZINC000481838178    0.0800
     44 H44         0.0870    0.3268   47.8951 H       1  ZINC000481838178    0.0700
     45 H45        -1.6121    0.0939   47.3978 H       1  ZINC000481838178    0.0700
     46 H46        -0.1260    0.5360   45.4334 H       1  ZINC000481838178    0.0600
     47 H47        -1.3559    1.7990   45.6362 H       1  ZINC000481838178    0.0600
     48 H48         1.5707    1.9460   46.4405 H       1  ZINC000481838178    0.0600
     49 H49         0.7739    2.8433   45.1330 H       1  ZINC000481838178    0.0700
     50 H50         1.1121    4.2514   47.1777 H       1  ZINC000481838178    0.0700
     51 H51        -0.6189    4.0529   46.7873 H       1  ZINC000481838178    0.0700
     52 H52        -0.8954    4.7042   49.2147 H       1  ZINC000481838178    0.0700
     53 H53         0.4870    4.1291   50.1926 H       1  ZINC000481838178    0.0700
@<TRIPOS>BOND
     1     1     2    2
     2     2     3    1
     3     2    21   am
     4     3     4    1
     5     3    32    1
     6     3    33    1
     7     4     5    1
     8     5    14    1
     9     5     6    2
    10     6     7    1
    11     7     8    2
    12     8     9    1
    13     8    14    1
    14     9    13    1
    15     9    10    2
    16    10    11    1
    17    10    34    1
    18    11    12    2
    19    11    35    1
    20    12    13    1
    21    12    36    1
    22    14    15    1
    23    15    20   ar
    24    15    16   ar
    25    16    17   ar
    26    16    37    1
    27    17    18   ar
    28    17    38    1
    29    18    19   ar
    30    18    39    1
    31    19    20   ar
    32    19    40    1
    33    20    41    1
    34    21    31    1
    35    21    22    1
    36    22    23    1
    37    22    42    1
    38    22    43    1
    39    23    24    1
    40    23    29    1
    41    23    25    1
    42    25    26    1
    43    25    44    1
    44    25    45    1
    45    26    27    1
    46    26    46    1
    47    26    47    1
    48    27    28    1
    49    27    48    1
    50    27    49    1
    51    28    29    1
    52    28    50    1
    53    28    51    1
    54    29    30    1
    55    29    31    1
    56    31    52    1
    57    31    53    1
@<TRIPOS>SUBSTRUCTURE
     1 ZINC000481838178        1 TEMP              0 ****  ****    0 ROOT


##########                                Name:    ZINC000740930783
##########                DOCK_Rotatable_Bonds:                  11
##########                         Heavy_Atoms:                  27
##########                    Molecular_Weight:             413.257
##########                DOCK_Rotatable_Bonds:                  11
##########                       Formal_Charge:          -0.0100004
##########                     HBond_Acceptors:                   9
##########                        HBond_Donors:                   4
##########                         Heavy_Atoms:                  27
##########                          Grid_Score:          -33.848770
##########                     Grid_vdw_energy:          -28.358372
##########                      Grid_es_energy:           -5.490400
##########           Internal_energy_repulsive:           16.967293

@<TRIPOS>MOLECULE
ZINC000740930783
 45 46 1 0 0
SMALL
USER_CHARGES


@<TRIPOS>ATOM
      1 C1         -6.3410   -1.1516   51.1828 C.3     1  ZINC000740930783    0.0200
      2 O2         -7.3725   -1.3504   52.1517 O.3     1  ZINC000740930783   -0.3000
      3 C3         -8.0166   -0.2414   52.6043 C.ar    1  ZINC000740930783    0.1200
      4 C4         -7.2901    0.8534   53.0305 C.ar    1  ZINC000740930783   -0.1400
      5 C5         -7.9546    1.9919   53.4946 C.ar    1  ZINC000740930783   -0.0800
      6 C6         -7.1825    3.1644   53.9508 C.2     1  ZINC000740930783    0.5600
      7 O7         -7.5530    4.2859   53.6620 O.2     1  ZINC000740930783   -0.5300
      8 N8         -6.0671    2.9918   54.6872 N.am    1  ZINC000740930783   -0.7200
      9 C9         -5.2999    4.1555   55.1384 C.3     1  ZINC000740930783    0.0900
     10 C10        -3.8040    3.8610   55.0103 C.3     1  ZINC000740930783    0.1400
     11 H11        -3.6260    2.8002   55.1863 H       1  ZINC000740930783    0.1200
     12 O12        -3.0826    4.6313   55.9738 O.3     1  ZINC000740930783   -0.5500
     13 C13        -3.3372    4.2254   53.6245 C.ar    1  ZINC000740930783   -0.1100
     14 C14        -2.9914    3.2321   52.7282 C.ar    1  ZINC000740930783   -0.1000
     15 C15        -2.5631    3.5663   51.4567 C.ar    1  ZINC000740930783   -0.1100
     16 C16        -2.4798    4.8941   51.0817 C.ar    1  ZINC000740930783   -0.1000
     17 C17        -2.8253    5.8886   51.9775 C.ar    1  ZINC000740930783   -0.1100
     18 C18        -3.2599    5.5546   53.2476 C.ar    1  ZINC000740930783   -0.0300
     19 Cl19       -3.6940    6.8029   54.3731 Cl      1  ZINC000740930783   -0.0600
     20 C20        -9.3508    2.0182   53.5257 C.ar    1  ZINC000740930783   -0.1000
     21 C21       -10.0705    0.9217   53.0987 C.ar    1  ZINC000740930783   -0.0200
     22 Cl22      -11.8057    0.9561   53.1373 Cl      1  ZINC000740930783   -0.0300
     23 C23        -9.4098   -0.2075   52.6326 C.ar    1  ZINC000740930783    0.0900
     24 O24       -10.1225   -1.2848   52.2130 O.3     1  ZINC000740930783   -0.2900
     25 C25       -10.3896   -2.3026   53.1798 C.3     1  ZINC000740930783    0.0400
     26 C26       -11.5764   -3.1184   52.7357 C.2     1  ZINC000740930783    0.5200
     27 N27       -12.3779   -2.6624   51.7528 N.am    1  ZINC000740930783   -0.8500
     28 O28       -11.8102   -4.1853   53.2628 O.2     1  ZINC000740930783   -0.5100
     29 H29        -6.7614   -0.6751   50.2972 H       1  ZINC000740930783    0.0600
     30 H30        -5.5644   -0.5135   51.6046 H       1  ZINC000740930783    0.0600
     31 H31        -5.9105   -2.1144   50.9077 H       1  ZINC000740930783    0.1100
     32 H32        -6.2107    0.8295   53.0055 H       1  ZINC000740930783    0.1600
     33 H33        -5.7722    2.0971   54.9185 H       1  ZINC000740930783    0.4100
     34 H34        -5.5542    5.0189   54.5236 H       1  ZINC000740930783    0.0900
     35 H35        -5.5405    4.3676   56.1801 H       1  ZINC000740930783    0.0800
     36 H36        -2.8951    4.1574   56.7957 H       1  ZINC000740930783    0.3800
     37 H37        -3.0556    2.1946   53.0209 H       1  ZINC000740930783    0.1300
     38 H38        -2.2930    2.7897   50.7565 H       1  ZINC000740930783    0.1300
     39 H39        -2.1445    5.1546   50.0886 H       1  ZINC000740930783    0.1400
     40 H40        -2.7603    6.9260   51.6842 H       1  ZINC000740930783    0.1400
     41 H41        -9.8666    2.8966   53.8842 H       1  ZINC000740930783    0.1500
     42 H42        -9.5184   -2.9507   53.2753 H       1  ZINC000740930783    0.0900
     43 H43       -10.6062   -1.8408   54.1432 H       1  ZINC000740930783    0.0900
     44 H44       -13.1411   -3.1879   51.4662 H       1  ZINC000740930783    0.4000
     45 H45       -12.1916   -1.8084   51.3322 H       1  ZINC000740930783    0.4100
@<TRIPOS>BOND
     1     1     2    1
     2     1    29    1
     3     1    30    1
     4     1    31    1
     5     2     3    1
     6     3    23   ar
     7     3     4   ar
     8     4     5   ar
     9     4    32    1
    10     5     6    1
    11     5    20   ar
    12     6     7    2
    13     6     8   am
    14     8     9    1
    15     8    33    1
    16     9    10    1
    17     9    34    1
    18     9    35    1
    19    10    11    1
    20    10    12    1
    21    10    13    1
    22    12    36    1
    23    13    18   ar
    24    13    14   ar
    25    14    15   ar
    26    14    37    1
    27    15    16   ar
    28    15    38    1
    29    16    17   ar
    30    16    39    1
    31    17    18   ar
    32    17    40    1
    33    18    19    1
    34    20    21   ar
    35    20    41    1
    36    21    22    1
    37    21    23   ar
    38    23    24    1
    39    24    25    1
    40    25    26    1
    41    25    42    1
    42    25    43    1
    43    26    27   am
    44    26    28    2
    45    27    44    1
    46    27    45    1
@<TRIPOS>SUBSTRUCTURE
     1 ZINC000740930783        1 TEMP              0 ****  ****    0 ROOT


##########                                Name:    ZINC000762187039
##########                DOCK_Rotatable_Bonds:                   9
##########                         Heavy_Atoms:                  25
##########                    Molecular_Weight:             354.473
##########                DOCK_Rotatable_Bonds:                   9
##########                       Formal_Charge:        -1.78814e-07
##########                     HBond_Acceptors:                   5
##########                        HBond_Donors:                   1
##########                         Heavy_Atoms:                  25
##########                          Grid_Score:          -33.785469
##########                     Grid_vdw_energy:          -33.028381
##########                      Grid_es_energy:           -0.757086
##########           Internal_energy_repulsive:            6.155395

@<TRIPOS>MOLECULE
ZINC000762187039
 47 49 1 0 0
SMALL
USER_CHARGES


@<TRIPOS>ATOM
      1 C1        -11.8417   -0.0043   52.7373 C.3     1  ZINC000762187039   -0.0800
      2 C2        -10.4516   -0.4904   52.4169 C.2     1  ZINC000762187039    0.0500
      3 N3         -9.4030    0.2590   52.3559 N.2     1  ZINC000762187039   -0.4700
      4 C4         -8.2606   -0.3290   52.0628 C.2     1  ZINC000762187039    0.0700
      5 C5         -6.9593    0.4239   51.9591 C.3     1  ZINC000762187039   -0.0300
      6 C6         -6.9750    1.6056   52.9307 C.3     1  ZINC000762187039   -0.1300
      7 C7         -5.7327    2.4354   52.7327 C.2     1  ZINC000762187039    0.5200
      8 O8         -5.7208    3.5998   53.0719 O.2     1  ZINC000762187039   -0.5400
      9 N9         -4.6350    1.8836   52.1786 N.am    1  ZINC000762187039   -0.7300
     10 C10        -3.4279    2.6907   51.9846 C.3     1  ZINC000762187039    0.1200
     11 C11        -2.5983    2.1010   50.8422 C.3     1  ZINC000762187039   -0.1300
     12 C12        -1.1097    2.2597   51.1582 C.3     1  ZINC000762187039    0.0600
     13 O13        -0.3375    1.5694   50.1737 O.3     1  ZINC000762187039   -0.3100
     14 C14        -0.2611    2.1359   48.9410 C.ar    1  ZINC000762187039    0.1300
     15 C15        -0.8921    1.5180   47.8573 C.ar    1  ZINC000762187039   -0.1900
     16 C16        -0.8336    2.0608   46.6115 C.ar    1  ZINC000762187039   -0.0600
     17 C17        -0.1301    3.2602   46.4062 C.ar    1  ZINC000762187039   -0.0800
     18 C18        -0.0498    3.8488   45.1326 C.ar    1  ZINC000762187039   -0.0900
     19 C19         0.6396    5.0109   44.9698 C.ar    1  ZINC000762187039   -0.1300
     20 C20         1.2693    5.6292   46.0487 C.ar    1  ZINC000762187039   -0.1000
     21 C21         1.2132    5.0887   47.2963 C.ar    1  ZINC000762187039   -0.1200
     22 C22         0.5103    3.8889   47.5037 C.ar    1  ZINC000762187039   -0.0100
     23 C23         0.4267    3.3049   48.7778 C.ar    1  ZINC000762187039   -0.1500
     24 C24        -8.3506   -1.6477   51.8655 C.2     1  ZINC000762187039   -0.2600
     25 S25       -10.0346   -2.1156   52.0887 S.3     1  ZINC000762187039    0.1200
     26 H26       -12.5329   -0.8470   52.7260 H       1  ZINC000762187039    0.0800
     27 H27       -11.8468    0.4566   53.7250 H       1  ZINC000762187039    0.0900
     28 H28       -12.1508    0.7291   51.9925 H       1  ZINC000762187039    0.0900
     29 H29        -6.1334   -0.2417   52.2098 H       1  ZINC000762187039    0.0900
     30 H30        -6.8329    0.7924   50.9410 H       1  ZINC000762187039    0.0900
     31 H31        -7.8557    2.2194   52.7422 H       1  ZINC000762187039    0.0900
     32 H32        -7.0039    1.2335   53.9549 H       1  ZINC000762187039    0.1000
     33 H33        -4.6442    0.9520   51.9085 H       1  ZINC000762187039    0.4000
     34 H34        -3.7108    3.7139   51.7374 H       1  ZINC000762187039    0.0700
     35 H35        -2.8378    2.6881   52.9010 H       1  ZINC000762187039    0.0700
     36 H36        -2.8351    1.0430   50.7298 H       1  ZINC000762187039    0.0800
     37 H37        -2.8309    2.6259   49.9156 H       1  ZINC000762187039    0.0800
     38 H38        -0.8473    3.3176   51.1496 H       1  ZINC000762187039    0.0700
     39 H39        -0.9007    1.8415   52.1428 H       1  ZINC000762187039    0.0700
     40 H40        -1.4336    0.5962   48.0114 H       1  ZINC000762187039    0.1300
     41 H41        -1.3254    1.5720   45.7834 H       1  ZINC000762187039    0.1300
     42 H42        -0.5324    3.3811   44.2872 H       1  ZINC000762187039    0.1300
     43 H43         0.6998    5.4607   43.9898 H       1  ZINC000762187039    0.1200
     44 H44         1.8101    6.5508   45.8920 H       1  ZINC000762187039    0.1200
     45 H45         1.7060    5.5789   48.1229 H       1  ZINC000762187039    0.1300
     46 H46         0.9064    3.7753   49.6234 H       1  ZINC000762187039    0.1300
     47 H47        -7.5347   -2.3101   51.6170 H       1  ZINC000762187039    0.1800
@<TRIPOS>BOND
     1     1     2    1
     2     1    26    1
     3     1    27    1
     4     1    28    1
     5     2    25    1
     6     2     3    2
     7     3     4    1
     8     4     5    1
     9     4    24    2
    10     5     6    1
    11     5    29    1
    12     5    30    1
    13     6     7    1
    14     6    31    1
    15     6    32    1
    16     7     8    2
    17     7     9   am
    18     9    10    1
    19     9    33    1
    20    10    11    1
    21    10    34    1
    22    10    35    1
    23    11    12    1
    24    11    36    1
    25    11    37    1
    26    12    13    1
    27    12    38    1
    28    12    39    1
    29    13    14    1
    30    14    23   ar
    31    14    15   ar
    32    15    16   ar
    33    15    40    1
    34    16    17   ar
    35    16    41    1
    36    17    22   ar
    37    17    18   ar
    38    18    19   ar
    39    18    42    1
    40    19    20   ar
    41    19    43    1
    42    20    21   ar
    43    20    44    1
    44    21    22   ar
    45    21    45    1
    46    22    23   ar
    47    23    46    1
    48    24    25    1
    49    24    47    1
@<TRIPOS>SUBSTRUCTURE
     1 ZINC000762187039        1 TEMP              0 ****  ****    0 ROOT


##########                                Name:    ZINC000762020937
##########                DOCK_Rotatable_Bonds:                  10
##########                         Heavy_Atoms:                  28
##########                    Molecular_Weight:             391.467
##########                DOCK_Rotatable_Bonds:                  10
##########                       Formal_Charge:         -1.8999e-07
##########                     HBond_Acceptors:                   8
##########                        HBond_Donors:                   1
##########                         Heavy_Atoms:                  28
##########                          Grid_Score:          -33.765869
##########                     Grid_vdw_energy:          -33.671764
##########                      Grid_es_energy:           -0.094103
##########           Internal_energy_repulsive:           38.410892

@<TRIPOS>MOLECULE
ZINC000762020937
 57 58 1 0 0
SMALL
USER_CHARGES


@<TRIPOS>ATOM
      1 C1         -5.7255    0.6096   51.5200 C.3     1  ZINC000762020937    0.0200
      2 O2         -6.6396    0.6923   52.6153 O.3     1  ZINC000762020937   -0.3000
      3 C3         -7.8714    0.1452   52.4342 C.ar    1  ZINC000762020937    0.1100
      4 C4         -8.0082   -1.2261   52.2946 C.ar    1  ZINC000762020937   -0.1700
      5 C5         -9.2616   -1.7808   52.1108 C.ar    1  ZINC000762020937   -0.1000
      6 C6        -10.3797   -0.9697   52.0657 C.ar    1  ZINC000762020937   -0.1000
      7 C7        -11.7432   -1.5794   51.8648 C.3     1  ZINC000762020937    0.0200
      8 C8        -12.1253   -2.3699   53.0896 C.2     1  ZINC000762020937    0.1900
      9 N9        -12.1272   -1.9390   54.3281 N.2     1  ZINC000762020937   -0.4700
     10 C10       -12.5352   -2.9814   55.0735 C.2     1  ZINC000762020937    0.1600
     11 C11       -12.7049   -2.9949   56.5708 C.3     1  ZINC000762020937    0.2600
     12 H12       -12.2001   -3.8673   56.9859 H       1  ZINC000762020937    0.1200
     13 N13       -12.1219   -1.7771   57.1393 N.am    1  ZINC000762020937   -0.7100
     14 C14       -11.2243   -1.8637   58.1411 C.2     1  ZINC000762020937    0.6600
     15 O15       -10.8975   -2.9520   58.5717 O.2     1  ZINC000762020937   -0.5600
     16 O16       -10.6897   -0.7444   58.6646 O.3     1  ZINC000762020937   -0.3600
     17 C17        -9.9722   -0.8812   59.9195 C.3     1  ZINC000762020937    0.1400
     18 C18        -9.5756    0.5041   60.4339 C.3     1  ZINC000762020937   -0.1800
     19 C19       -10.8711   -1.5693   60.9487 C.3     1  ZINC000762020937   -0.1400
     20 C20        -8.7135   -1.7225   59.6983 C.3     1  ZINC000762020937   -0.1800
     21 C21       -14.1944   -3.0559   56.9149 C.3     1  ZINC000762020937   -0.1000
     22 C22       -14.3814   -3.7933   58.2422 C.3     1  ZINC000762020937   -0.1400
     23 C23       -14.7480   -1.6349   57.0384 C.3     1  ZINC000762020937   -0.1400
     24 N24       -12.7567   -3.9747   54.2654 N.2     1  ZINC000762020937   -0.3700
     25 O25       -12.5327   -3.6424   53.1205 O.3     1  ZINC000762020937    0.0900
     26 C26       -10.2501    0.4000   52.2048 C.ar    1  ZINC000762020937   -0.1500
     27 C27        -8.9981    0.9616   52.3944 C.ar    1  ZINC000762020937    0.1000
     28 O28        -8.8690    2.3084   52.5314 O.3     1  ZINC000762020937   -0.3100
     29 C29        -9.1823    3.1096   51.3903 C.3     1  ZINC000762020937    0.0200
     30 H30        -5.5478   -0.4372   51.2733 H       1  ZINC000762020937    0.0600
     31 H31        -6.1483    1.1200   50.6546 H       1  ZINC000762020937    0.0600
     32 H32        -4.7834    1.0828   51.7965 H       1  ZINC000762020937    0.1000
     33 H33        -7.1360   -1.8621   52.3288 H       1  ZINC000762020937    0.1400
     34 H34        -9.3668   -2.8502   52.0021 H       1  ZINC000762020937    0.1300
     35 H35       -12.4744   -0.7880   51.7004 H       1  ZINC000762020937    0.1200
     36 H36       -11.7216   -2.2401   50.9981 H       1  ZINC000762020937    0.1200
     37 H37       -12.3817   -0.9083   56.7948 H       1  ZINC000762020937    0.4100
     38 H38       -10.4723    1.1035   60.5915 H       1  ZINC000762020937    0.0600
     39 H39        -9.0370    0.4015   61.3759 H       1  ZINC000762020937    0.0700
     40 H40        -8.9352    0.9943   59.7007 H       1  ZINC000762020937    0.0900
     41 H41       -11.1536   -2.5562   60.5822 H       1  ZINC000762020937    0.0700
     42 H42       -10.3325   -1.6719   61.8908 H       1  ZINC000762020937    0.0800
     43 H43       -11.7677   -0.9699   61.1063 H       1  ZINC000762020937    0.0700
     44 H44        -8.0730   -1.2324   58.9650 H       1  ZINC000762020937    0.0900
     45 H45        -8.1749   -1.8252   60.6403 H       1  ZINC000762020937    0.0700
     46 H46        -8.9960   -2.7095   59.3319 H       1  ZINC000762020937    0.0600
     47 H47       -14.7280   -3.5864   56.1262 H       1  ZINC000762020937    0.0800
     48 H48       -13.8479   -3.2629   59.0309 H       1  ZINC000762020937    0.0600
     49 H49       -15.4427   -3.8368   58.4874 H       1  ZINC000762020937    0.0600
     50 H50       -13.9871   -4.8056   58.1542 H       1  ZINC000762020937    0.0500
     51 H51       -14.6147   -1.1096   56.0927 H       1  ZINC000762020937    0.0500
     52 H52       -15.8091   -1.6784   57.2834 H       1  ZINC000762020937    0.0600
     53 H53       -14.2143   -1.1045   57.8270 H       1  ZINC000762020937    0.0700
     54 H54       -11.1255    1.0315   52.1692 H       1  ZINC000762020937    0.1400
     55 H55       -10.2204    2.9426   51.1030 H       1  ZINC000762020937    0.0600
     56 H56        -9.0376    4.1620   51.6344 H       1  ZINC000762020937    0.1000
     57 H57        -8.5277    2.8353   50.5630 H       1  ZINC000762020937    0.0600
@<TRIPOS>BOND
     1     1     2    1
     2     1    30    1
     3     1    31    1
     4     1    32    1
     5     2     3    1
     6     3    27   ar
     7     3     4   ar
     8     4     5   ar
     9     4    33    1
    10     5     6   ar
    11     5    34    1
    12     6     7    1
    13     6    26   ar
    14     7     8    1
    15     7    35    1
    16     7    36    1
    17     8    25    1
    18     8     9    2
    19     9    10    1
    20    10    11    1
    21    10    24    2
    22    11    12    1
    23    11    13    1
    24    11    21    1
    25    13    14   am
    26    13    37    1
    27    14    15    2
    28    14    16    1
    29    16    17    1
    30    17    18    1
    31    17    19    1
    32    17    20    1
    33    18    38    1
    34    18    39    1
    35    18    40    1
    36    19    41    1
    37    19    42    1
    38    19    43    1
    39    20    44    1
    40    20    45    1
    41    20    46    1
    42    21    22    1
    43    21    23    1
    44    21    47    1
    45    22    48    1
    46    22    49    1
    47    22    50    1
    48    23    51    1
    49    23    52    1
    50    23    53    1
    51    24    25    1
    52    26    27   ar
    53    26    54    1
    54    27    28    1
    55    28    29    1
    56    29    55    1
    57    29    56    1
    58    29    57    1
@<TRIPOS>SUBSTRUCTURE
     1 ZINC000762020937        1 TEMP              0 ****  ****    0 ROOT


##########                                Name:    ZINC000654382142
##########                DOCK_Rotatable_Bonds:                  14
##########                         Heavy_Atoms:                  24
##########                    Molecular_Weight:             379.401
##########                DOCK_Rotatable_Bonds:                  14
##########                       Formal_Charge:          0.00999933
##########                     HBond_Acceptors:                  12
##########                        HBond_Donors:                   2
##########                         Heavy_Atoms:                  24
##########                          Grid_Score:          -33.730511
##########                     Grid_vdw_energy:          -30.761591
##########                      Grid_es_energy:           -2.968920
##########           Internal_energy_repulsive:           13.652739

@<TRIPOS>MOLECULE
ZINC000654382142
 48 47 1 0 0
SMALL
USER_CHARGES


@<TRIPOS>ATOM
      1 C1         -9.1752    0.4077   53.0187 C.3     1  ZINC000654382142    0.0300
      2 O2         -9.0306    1.7588   52.5762 O.3     1  ZINC000654382142   -0.3700
      3 C3         -7.7152    2.0841   52.1224 C.3     1  ZINC000654382142    0.0400
      4 C4         -6.7179    1.8866   53.2658 C.3     1  ZINC000654382142    0.1400
      5 N5         -5.4368    2.5004   52.9079 N.am    1  ZINC000654382142   -0.6100
      6 C6         -5.1137    3.8493   53.3796 C.3     1  ZINC000654382142    0.0800
      7 C7         -4.3081    3.7565   54.6771 C.3     1  ZINC000654382142    0.0500
      8 H8         -3.5160    3.0169   54.5608 H       1  ZINC000654382142    0.1400
      9 O9         -5.1714    3.3660   55.7468 O.3     1  ZINC000654382142   -0.5200
     10 C10        -3.6902    5.1203   54.9923 C.3     1  ZINC000654382142    0.4200
     11 F11        -2.8664    5.5152   53.9328 F       1  ZINC000654382142   -0.1800
     12 F12        -4.7080    6.0638   55.1683 F       1  ZINC000654382142   -0.1700
     13 F13        -2.9314    5.0288   56.1640 F       1  ZINC000654382142   -0.1800
     14 C14        -4.5555    1.8243   52.1448 C.2     1  ZINC000654382142    0.7100
     15 O15        -4.8243    0.7054   51.7521 O.2     1  ZINC000654382142   -0.5600
     16 N16        -3.3762    2.3884   51.8169 N.am    1  ZINC000654382142   -0.7500
     17 C17        -2.4174    1.6526   50.9887 C.3     1  ZINC000654382142    0.1400
     18 C18        -1.5582    2.6436   50.2009 C.3     1  ZINC000654382142   -0.1600
     19 C19        -0.5049    1.8787   49.3971 C.3     1  ZINC000654382142    0.1200
     20 N20        -0.4113    2.4465   48.0499 N.am    1  ZINC000654382142   -1.0000
     21 C21         0.0988    3.8069   47.8621 C.3     1  ZINC000654382142    0.0900
     22 S22        -0.8821    1.5505   46.7392 S.o2    1  ZINC000654382142    2.6100
     23 C23         0.1932    0.0901   46.7794 C.3     1  ZINC000654382142   -0.6800
     24 O24        -2.2258    1.1884   47.0266 O.2     1  ZINC000654382142   -0.9500
     25 O25        -0.5672    2.3708   45.6224 O.2     1  ZINC000654382142   -0.9500
     26 H26       -10.2011    0.2406   53.3467 H       1  ZINC000654382142    0.0900
     27 H27        -8.9412   -0.2705   52.1980 H       1  ZINC000654382142    0.0400
     28 H28        -8.4935    0.2223   53.8488 H       1  ZINC000654382142    0.0400
     29 H29        -7.4468    1.4338   51.2899 H       1  ZINC000654382142    0.0500
     30 H30        -7.6907    3.1232   51.7943 H       1  ZINC000654382142    0.0600
     31 H31        -7.1052    2.3552   54.1706 H       1  ZINC000654382142    0.0900
     32 H32        -6.5736    0.8207   53.4419 H       1  ZINC000654382142    0.1000
     33 H33        -4.5250    4.3675   52.6227 H       1  ZINC000654382142    0.1000
     34 H34        -6.0359    4.4006   53.5631 H       1  ZINC000654382142    0.1000
     35 H35        -4.7249    3.2758   56.5997 H       1  ZINC000654382142    0.3900
     36 H36        -3.1623    3.2815   52.1291 H       1  ZINC000654382142    0.3900
     37 H37        -1.7771    1.0444   51.6277 H       1  ZINC000654382142    0.0700
     38 H38        -2.9565    1.0075   50.2950 H       1  ZINC000654382142    0.0700
     39 H39        -2.1916    3.2129   49.5206 H       1  ZINC000654382142    0.0700
     40 H40        -1.0631    3.3252   50.8925 H       1  ZINC000654382142    0.0800
     41 H41         0.4619    1.9609   49.8940 H       1  ZINC000654382142    0.0900
     42 H42        -0.7907    0.8289   49.3299 H       1  ZINC000654382142    0.1000
     43 H43         1.1797    3.7741   47.7258 H       1  ZINC000654382142    0.0600
     44 H44        -0.3653    4.2506   46.9812 H       1  ZINC000654382142    0.0700
     45 H45        -0.1386    4.4083   48.7397 H       1  ZINC000654382142    0.0700
     46 H46         0.0412   -0.4473   47.7155 H       1  ZINC000654382142    0.1300
     47 H47        -0.0501   -0.5635   45.9417 H       1  ZINC000654382142    0.1300
     48 H48         1.2346    0.4034   46.7053 H       1  ZINC000654382142    0.1300
@<TRIPOS>BOND
     1     1     2    1
     2     1    26    1
     3     1    27    1
     4     1    28    1
     5     2     3    1
     6     3     4    1
     7     3    29    1
     8     3    30    1
     9     4     5    1
    10     4    31    1
    11     4    32    1
    12     5     6    1
    13     5    14   am
    14     6     7    1
    15     6    33    1
    16     6    34    1
    17     7     8    1
    18     7     9    1
    19     7    10    1
    20     9    35    1
    21    10    11    1
    22    10    12    1
    23    10    13    1
    24    14    15    2
    25    14    16   am
    26    16    17    1
    27    16    36    1
    28    17    18    1
    29    17    37    1
    30    17    38    1
    31    18    19    1
    32    18    39    1
    33    18    40    1
    34    19    20    1
    35    19    41    1
    36    19    42    1
    37    20    21    1
    38    20    22   am
    39    21    43    1
    40    21    44    1
    41    21    45    1
    42    22    23    1
    43    22    24    2
    44    22    25    2
    45    23    46    1
    46    23    47    1
    47    23    48    1
@<TRIPOS>SUBSTRUCTURE
     1 ZINC000654382142        1 TEMP              0 ****  ****    0 ROOT


##########                                Name:    ZINC000892249927
##########                DOCK_Rotatable_Bonds:                   8
##########                         Heavy_Atoms:                  27
##########                    Molecular_Weight:             364.487
##########                DOCK_Rotatable_Bonds:                   8
##########                       Formal_Charge:          -0.0300015
##########                     HBond_Acceptors:                   4
##########                        HBond_Donors:                   1
##########                         Heavy_Atoms:                  27
##########                          Grid_Score:          -33.689735
##########                     Grid_vdw_energy:          -34.172813
##########                      Grid_es_energy:            0.483079
##########           Internal_energy_repulsive:           15.501901

@<TRIPOS>MOLECULE
ZINC000892249927
 55 58 1 0 0
SMALL
USER_CHARGES


@<TRIPOS>ATOM
      1 O1         -7.9281   -1.6854   52.2498 O.2     1  ZINC000892249927   -0.5300
      2 C2         -8.6754   -0.8696   52.7468 C.2     1  ZINC000892249927    0.5100
      3 C3         -8.1489    0.4803   53.1612 C.3     1  ZINC000892249927   -0.1400
      4 C4         -6.8050    0.7359   52.4759 C.3     1  ZINC000892249927   -0.1000
      5 C5         -6.3149    2.1430   52.8233 C.3     1  ZINC000892249927   -0.0800
      6 C6         -4.8804    2.2970   52.3879 C.ar    1  ZINC000892249927   -0.0900
      7 C7         -4.3469    1.4350   51.4481 C.ar    1  ZINC000892249927   -0.1100
      8 C8         -3.0310    1.5763   51.0488 C.ar    1  ZINC000892249927   -0.1100
      9 C9         -2.2488    2.5799   51.5888 C.ar    1  ZINC000892249927   -0.0500
     10 C10        -0.8141    2.7336   51.1538 C.3     1  ZINC000892249927   -0.1200
     11 C11        -0.5507    3.4549   49.8305 C.3     1  ZINC000892249927   -0.1800
     12 C12        -0.2225    4.1445   51.1564 C.3     1  ZINC000892249927   -0.1700
     13 C13        -2.7827    3.4428   52.5276 C.ar    1  ZINC000892249927   -0.1200
     14 C14        -4.0996    3.3039   52.9241 C.ar    1  ZINC000892249927   -0.1100
     15 N15        -9.9777   -1.1682   52.9235 N.am    1  ZINC000892249927   -0.7300
     16 C16       -10.4894   -2.4805   52.5207 C.3     1  ZINC000892249927    0.1400
     17 H17        -9.6769   -3.0773   52.1063 H       1  ZINC000892249927    0.1000
     18 C18       -11.5841   -2.3015   51.4644 C.3     1  ZINC000892249927   -0.1700
     19 C19       -12.7538   -1.5282   52.0790 C.3     1  ZINC000892249927    0.0600
     20 O20       -13.2384   -2.2314   53.2248 O.3     1  ZINC000892249927   -0.3700
     21 C21       -12.2717   -2.3872   54.2656 C.3     1  ZINC000892249927    0.1400
     22 H22       -11.9281   -1.4059   54.5926 H       1  ZINC000892249927    0.0700
     23 C23       -12.8976   -3.1137   55.4282 C.ar    1  ZINC000892249927   -0.1400
     24 C24       -12.7949   -2.6027   56.7127 C.ar    1  ZINC000892249927   -0.0700
     25 C25       -13.3869   -3.3048   57.7517 C.ar    1  ZINC000892249927   -0.1700
     26 C26       -14.0547   -4.4823   57.4742 C.ar    1  ZINC000892249927    0.1000
     27 N27       -14.1324   -4.9388   56.2393 N.ar    1  ZINC000892249927   -0.4900
     28 C28       -13.5863   -4.2951   55.2264 C.ar    1  ZINC000892249927    0.1300
     29 C29       -11.0806   -3.1959   53.7394 C.3     1  ZINC000892249927   -0.1500
     30 H30        -8.8593    1.2532   52.8674 H       1  ZINC000892249927    0.0900
     31 H31        -8.0151    0.5019   54.2427 H       1  ZINC000892249927    0.0900
     32 H32        -6.0763    0.0019   52.8200 H       1  ZINC000892249927    0.0700
     33 H33        -6.9256    0.6494   51.3960 H       1  ZINC000892249927    0.0700
     34 H34        -6.9317    2.8800   52.3091 H       1  ZINC000892249927    0.0700
     35 H35        -6.3862    2.2970   53.9000 H       1  ZINC000892249927    0.0700
     36 H36        -4.9581    0.6508   51.0262 H       1  ZINC000892249927    0.1200
     37 H37        -2.6140    0.9023   50.3150 H       1  ZINC000892249927    0.1200
     38 H38        -0.1517    1.9095   51.4188 H       1  ZINC000892249927    0.1100
     39 H39         0.2853    3.1054   49.2246 H       1  ZINC000892249927    0.1000
     40 H40        -1.4149    3.8184   49.2746 H       1  ZINC000892249927    0.1000
     41 H41        -0.8709    4.9616   51.4726 H       1  ZINC000892249927    0.1000
     42 H42         0.8293    4.2487   51.4225 H       1  ZINC000892249927    0.1000
     43 H43        -2.1716    4.2272   52.9493 H       1  ZINC000892249927    0.1200
     44 H44        -4.5167    3.9781   53.6575 H       1  ZINC000892249927    0.1200
     45 H45       -10.5761   -0.5142   53.3174 H       1  ZINC000892249927    0.4000
     46 H46       -11.1848   -1.7447   50.6167 H       1  ZINC000892249927    0.0800
     47 H47       -11.9301   -3.2792   51.1290 H       1  ZINC000892249927    0.0800
     48 H48       -12.4166   -0.5356   52.3774 H       1  ZINC000892249927    0.0500
     49 H49       -13.5539   -1.4350   51.3446 H       1  ZINC000892249927    0.1000
     50 H50       -12.2661   -1.6797   56.8998 H       1  ZINC000892249927    0.1300
     51 H51       -13.3264   -2.9362   58.7650 H       1  ZINC000892249927    0.1400
     52 H52       -14.5181   -5.0353   58.2778 H       1  ZINC000892249927    0.1600
     53 H53       -13.6706   -4.7001   54.2287 H       1  ZINC000892249927    0.1600
     54 H54       -11.4159   -4.1920   53.4499 H       1  ZINC000892249927    0.0900
     55 H55       -10.3231   -3.2778   54.5188 H       1  ZINC000892249927    0.0800
@<TRIPOS>BOND
     1     1     2    2
     2     2     3    1
     3     2    15   am
     4     3     4    1
     5     3    30    1
     6     3    31    1
     7     4     5    1
     8     4    32    1
     9     4    33    1
    10     5     6    1
    11     5    34    1
    12     5    35    1
    13     6    14   ar
    14     6     7   ar
    15     7     8   ar
    16     7    36    1
    17     8     9   ar
    18     8    37    1
    19     9    10    1
    20     9    13   ar
    21    10    12    1
    22    10    11    1
    23    10    38    1
    24    11    12    1
    25    11    39    1
    26    11    40    1
    27    12    41    1
    28    12    42    1
    29    13    14   ar
    30    13    43    1
    31    14    44    1
    32    15    16    1
    33    15    45    1
    34    16    17    1
    35    16    29    1
    36    16    18    1
    37    18    19    1
    38    18    46    1
    39    18    47    1
    40    19    20    1
    41    19    48    1
    42    19    49    1
    43    20    21    1
    44    21    22    1
    45    21    23    1
    46    21    29    1
    47    23    28   ar
    48    23    24   ar
    49    24    25   ar
    50    24    50    1
    51    25    26   ar
    52    25    51    1
    53    26    27   ar
    54    26    52    1
    55    27    28   ar
    56    28    53    1
    57    29    54    1
    58    29    55    1
@<TRIPOS>SUBSTRUCTURE
     1 ZINC000892249927        1 TEMP              0 ****  ****    0 ROOT


##########                                Name:    ZINC001109848453
##########                DOCK_Rotatable_Bonds:                   8
##########                         Heavy_Atoms:                  24
##########                    Molecular_Weight:             328.337
##########                DOCK_Rotatable_Bonds:                   8
##########                       Formal_Charge:          0.00999966
##########                     HBond_Acceptors:                  11
##########                        HBond_Donors:                   2
##########                         Heavy_Atoms:                  24
##########                          Grid_Score:          -33.667885
##########                     Grid_vdw_energy:          -32.438126
##########                      Grid_es_energy:           -1.229758
##########           Internal_energy_repulsive:            7.308826

@<TRIPOS>MOLECULE
ZINC001109848453
 40 43 1 0 0
SMALL
USER_CHARGES


@<TRIPOS>ATOM
      1 O1        -14.3499   -0.5830   51.5924 O.2     1  ZINC001109848453   -0.5000
      2 C2        -13.6073   -0.9841   50.7214 C.2     1  ZINC001109848453    0.5000
      3 C3        -14.0124   -0.8699   49.2743 C.3     1  ZINC001109848453    0.1100
      4 N4        -13.4499    0.3572   48.7051 N.pl3   1  ZINC001109848453   -0.3700
      5 C5        -13.2462    1.5222   49.3441 C.2     1  ZINC001109848453    0.2600
      6 N6        -12.7285    2.3682   48.4908 N.2     1  ZINC001109848453   -0.5400
      7 C7        -12.5874    1.7822   47.3025 C.2     1  ZINC001109848453    0.2000
      8 N8        -13.0106    0.5483   47.3848 N.2     1  ZINC001109848453   -0.2900
      9 N9        -12.4174   -1.5267   51.0472 N.am    1  ZINC001109848453   -0.7300
     10 C10       -12.0237   -1.6376   52.4539 C.3     1  ZINC001109848453    0.1700
     11 H11       -12.9152   -1.6517   53.0809 H       1  ZINC001109848453    0.1000
     12 C12       -11.1510   -0.4402   52.8352 C.3     1  ZINC001109848453    0.1200
     13 N13        -9.8494   -0.9162   53.3103 N.pl3   1  ZINC001109848453   -0.6800
     14 C14        -8.7340   -0.1015   53.2066 C.2     1  ZINC001109848453    0.4900
     15 N15        -8.7097    1.0729   53.8064 N.2     1  ZINC001109848453   -0.5300
     16 C16        -7.6421    1.8701   53.7168 C.2     1  ZINC001109848453    0.1400
     17 C17        -6.5504    1.5079   53.0119 C.2     1  ZINC001109848453   -0.0500
     18 N18        -6.5213    0.3011   52.3699 N.pl3   1  ZINC001109848453   -0.1800
     19 N19        -5.6525   -0.3064   51.6423 N.2     1  ZINC001109848453   -0.1000
     20 N20        -6.1281   -1.4453   51.2742 N.2     1  ZINC001109848453   -0.0400
     21 N21        -7.3155   -1.6037   51.7537 N.2     1  ZINC001109848453   -0.2600
     22 C22        -7.6082   -0.5241   52.4613 C.2     1  ZINC001109848453    0.1000
     23 C23       -11.2335   -2.9312   52.6619 C.3     1  ZINC001109848453   -0.1800
     24 C24       -11.1810   -3.5070   54.0785 C.3     1  ZINC001109848453   -0.1700
     25 C25       -12.0249   -4.1952   53.0037 C.3     1  ZINC001109848453   -0.1700
     26 H26       -13.6367   -1.7318   48.7227 H       1  ZINC001109848453    0.1300
     27 H27       -15.0996   -0.8384   49.2027 H       1  ZINC001109848453    0.1200
     28 H28       -13.4713    1.7248   50.3807 H       1  ZINC001109848453    0.2200
     29 H29       -12.1849    2.2498   46.4161 H       1  ZINC001109848453    0.2200
     30 H30       -11.8219   -1.8438   50.3503 H       1  ZINC001109848453    0.4000
     31 H31       -11.0082    0.1978   51.9631 H       1  ZINC001109848453    0.1000
     32 H32       -11.6403    0.1290   53.6256 H       1  ZINC001109848453    0.0900
     33 H33        -9.7687   -1.8019   53.6975 H       1  ZINC001109848453    0.4200
     34 H34        -7.6529    2.8260   54.2195 H       1  ZINC001109848453    0.2000
     35 H35        -5.6999    2.1710   52.9542 H       1  ZINC001109848453    0.1900
     36 H36       -10.3468   -3.0459   52.0384 H       1  ZINC001109848453    0.1100
     37 H37       -10.2595   -4.0004   54.3873 H       1  ZINC001109848453    0.1000
     38 H38       -11.7093   -2.9642   54.8622 H       1  ZINC001109848453    0.1000
     39 H39       -13.1085   -4.1052   53.0805 H       1  ZINC001109848453    0.1200
     40 H40       -11.6587   -5.1414   52.6056 H       1  ZINC001109848453    0.0900
@<TRIPOS>BOND
     1     1     2    2
     2     2     3    1
     3     2     9   am
     4     3     4    1
     5     3    26    1
     6     3    27    1
     7     4     8    1
     8     4     5    1
     9     5     6    2
    10     5    28    1
    11     6     7    1
    12     7     8    2
    13     7    29    1
    14     9    10    1
    15     9    30    1
    16    10    11    1
    17    10    12    1
    18    10    23    1
    19    12    13    1
    20    12    31    1
    21    12    32    1
    22    13    14    1
    23    13    33    1
    24    14    22    1
    25    14    15    2
    26    15    16    1
    27    16    17    2
    28    16    34    1
    29    17    18    1
    30    17    35    1
    31    18    22    1
    32    18    19    1
    33    19    20    2
    34    20    21    1
    35    21    22    2
    36    23    25    1
    37    23    24    1
    38    23    36    1
    39    24    25    1
    40    24    37    1
    41    24    38    1
    42    25    39    1
    43    25    40    1
@<TRIPOS>SUBSTRUCTURE
     1 ZINC001109848453        1 TEMP              0 ****  ****    0 ROOT


##########                                Name:    ZINC000269356812
##########                DOCK_Rotatable_Bonds:                  10
##########                         Heavy_Atoms:                  25
##########                    Molecular_Weight:             387.431
##########                DOCK_Rotatable_Bonds:                  10
##########                       Formal_Charge:          0.00999978
##########                     HBond_Acceptors:                  10
##########                        HBond_Donors:                   3
##########                         Heavy_Atoms:                  25
##########                          Grid_Score:          -33.640739
##########                     Grid_vdw_energy:          -33.245544
##########                      Grid_es_energy:           -0.395196
##########           Internal_energy_repulsive:            9.501941

@<TRIPOS>MOLECULE
ZINC000269356812
 40 41 1 0 0
SMALL
USER_CHARGES


@<TRIPOS>ATOM
      1 C1        -14.9060   -3.0846   56.1210 C.3     1  ZINC000269356812   -0.1400
      2 C2        -13.8568   -4.1967   56.0629 C.3     1  ZINC000269356812    0.2000
      3 O3        -14.4777   -5.4525   56.3451 O.3     1  ZINC000269356812   -0.5400
      4 C4        -13.2344   -4.2381   54.6658 C.3     1  ZINC000269356812    0.0900
      5 N5        -12.2070   -3.1994   54.5579 N.am    1  ZINC000269356812   -0.6900
      6 C6        -11.3479   -3.2065   53.5194 C.2     1  ZINC000269356812    0.5100
      7 O7        -11.4245   -4.0744   52.6745 O.2     1  ZINC000269356812   -0.5100
      8 C8        -10.3018   -2.1467   53.4085 C.2     1  ZINC000269356812    0.5100
      9 O9        -10.1872   -1.3132   54.2836 O.2     1  ZINC000269356812   -0.4900
     10 N10        -9.4852   -2.1155   52.3368 N.am    1  ZINC000269356812   -0.6400
     11 C11        -8.5050   -1.1224   52.2329 C.ar    1  ZINC000269356812    0.0900
     12 C12        -8.8684    0.2206   52.1355 C.ar    1  ZINC000269356812   -0.0600
     13 C13        -7.8669    1.1681   52.0352 C.ar    1  ZINC000269356812   -0.1200
     14 C14        -6.5385    0.7537   52.0346 C.ar    1  ZINC000269356812    0.1000
     15 S15        -5.2523    1.9514   51.9079 S.3     1  ZINC000269356812   -0.0600
     16 C16        -5.3909    2.8656   53.4684 C.3     1  ZINC000269356812    0.2900
     17 F17        -4.1595    3.4550   53.7745 F       1  ZINC000269356812   -0.1700
     18 F18        -6.3655    3.8611   53.3409 F       1  ZINC000269356812   -0.1700
     19 N19        -6.2299   -0.5310   52.1288 N.ar    1  ZINC000269356812   -0.4600
     20 C20        -7.1595   -1.4612   52.2314 C.ar    1  ZINC000269356812    0.1100
     21 C21       -12.7819   -3.9270   57.0839 C.2     1  ZINC000269356812   -0.2300
     22 C22       -12.8419   -2.9942   58.0356 C.2     1  ZINC000269356812   -0.1100
     23 C23       -11.7326   -2.9310   58.8612 C.2     1  ZINC000269356812   -0.1400
     24 C24       -10.7718   -3.8125   58.5801 C.2     1  ZINC000269356812   -0.2000
     25 S25       -11.2596   -4.7992   57.2081 S.3     1  ZINC000269356812    0.1100
     26 H26       -15.3495   -3.0552   57.1163 H       1  ZINC000269356812    0.0800
     27 H27       -14.4324   -2.1268   55.9057 H       1  ZINC000269356812    0.0800
     28 H28       -15.6836   -3.2797   55.3824 H       1  ZINC000269356812    0.0700
     29 H29       -15.1351   -5.4159   57.0532 H       1  ZINC000269356812    0.3800
     30 H30       -12.7818   -5.2156   54.4985 H       1  ZINC000269356812    0.0900
     31 H31       -14.0080   -4.0632   53.9181 H       1  ZINC000269356812    0.0900
     32 H32       -12.1450   -2.5064   55.2339 H       1  ZINC000269356812    0.4200
     33 H33        -9.5769   -2.7815   51.6376 H       1  ZINC000269356812    0.4300
     34 H34        -9.9079    0.5134   52.1381 H       1  ZINC000269356812    0.1600
     35 H35        -8.1124    2.2170   51.9578 H       1  ZINC000269356812    0.1500
     36 H36        -5.6741    2.1801   54.2672 H       1  ZINC000269356812    0.1500
     37 H37        -6.8702   -2.4990   52.3062 H       1  ZINC000269356812    0.1700
     38 H38       -13.6913   -2.3377   58.1528 H       1  ZINC000269356812    0.1500
     39 H39       -11.6511   -2.2214   59.6714 H       1  ZINC000269356812    0.1400
     40 H40        -9.8387   -3.9082   59.1154 H       1  ZINC000269356812    0.1700
@<TRIPOS>BOND
     1     1     2    1
     2     1    26    1
     3     1    27    1
     4     1    28    1
     5     2     3    1
     6     2     4    1
     7     2    21    1
     8     3    29    1
     9     4     5    1
    10     4    30    1
    11     4    31    1
    12     5     6   am
    13     5    32    1
    14     6     7    2
    15     6     8    1
    16     8     9    2
    17     8    10   am
    18    10    11    1
    19    10    33    1
    20    11    20   ar
    21    11    12   ar
    22    12    13   ar
    23    12    34    1
    24    13    14   ar
    25    13    35    1
    26    14    15    1
    27    14    19   ar
    28    15    16    1
    29    16    17    1
    30    16    18    1
    31    16    36    1
    32    19    20   ar
    33    20    37    1
    34    21    25    1
    35    21    22    2
    36    22    23    1
    37    22    38    1
    38    23    24    2
    39    23    39    1
    40    24    25    1
    41    24    40    1
@<TRIPOS>SUBSTRUCTURE
     1 ZINC000269356812        1 TEMP              0 ****  ****    0 ROOT


##########                                Name:    ZINC001461256440
##########                DOCK_Rotatable_Bonds:                  13
##########                         Heavy_Atoms:                  26
##########                    Molecular_Weight:             367.445
##########                DOCK_Rotatable_Bonds:                  13
##########                       Formal_Charge:        -6.37025e-07
##########                     HBond_Acceptors:                   8
##########                        HBond_Donors:                   1
##########                         Heavy_Atoms:                  26
##########                          Grid_Score:          -33.630539
##########                     Grid_vdw_energy:          -32.553127
##########                      Grid_es_energy:           -1.077410
##########           Internal_energy_repulsive:           37.414730

@<TRIPOS>MOLECULE
ZINC001461256440
 55 55 1 0 0
SMALL
USER_CHARGES


@<TRIPOS>ATOM
      1 C1         -8.4868   -0.2221   58.9143 C.3     1  ZINC001461256440   -0.1500
      2 C2         -8.5615   -1.5197   59.7215 C.3     1  ZINC001461256440    0.0600
      3 O3         -9.9302   -1.7445   60.1510 O.3     1  ZINC001461256440   -0.3600
      4 C4        -10.7131   -2.4695   59.3367 C.2     1  ZINC001461256440    0.4400
      5 O5        -10.6910   -3.6761   59.3939 O.2     1  ZINC001461256440   -0.4800
      6 C6        -11.6195   -1.7783   58.3509 C.3     1  ZINC001461256440    0.1400
      7 N7        -13.0033   -2.2011   58.5804 N.pl3   1  ZINC001461256440   -0.3800
      8 N8        -13.6335   -2.3183   59.8258 N.2     1  ZINC001461256440   -0.2800
      9 C9        -14.8633   -2.7200   59.6295 C.2     1  ZINC001461256440    0.1000
     10 C10       -15.8907   -2.9732   60.7025 C.3     1  ZINC001461256440   -0.0700
     11 C11       -15.0614   -2.8730   58.2546 C.2     1  ZINC001461256440   -0.2700
     12 C12       -13.9002   -2.5415   57.6268 C.2     1  ZINC001461256440    0.3100
     13 N13       -13.6735   -2.5581   56.2507 N.am    1  ZINC001461256440   -0.6500
     14 C14       -13.2195   -3.6791   55.6559 C.2     1  ZINC001461256440    0.5200
     15 O15       -13.0093   -4.6739   56.3172 O.2     1  ZINC001461256440   -0.5000
     16 C16       -12.9729   -3.6964   54.1694 C.3     1  ZINC001461256440   -0.1300
     17 C17       -11.6368   -3.0158   53.8661 C.3     1  ZINC001461256440   -0.1100
     18 C18       -11.5322   -2.7440   52.3640 C.3     1  ZINC001461256440   -0.1100
     19 C19       -10.2104   -2.0337   52.0650 C.3     1  ZINC001461256440   -0.1200
     20 C20       -10.2093   -0.6772   52.7215 C.2     1  ZINC001461256440    0.4600
     21 O21       -11.2383   -0.0510   52.8161 O.2     1  ZINC001461256440   -0.5000
     22 O22        -9.0652   -0.1647   53.2013 O.3     1  ZINC001461256440   -0.3500
     23 C23        -9.1167    1.1901   53.7212 C.3     1  ZINC001461256440    0.1200
     24 C24       -10.0889    1.2468   54.9013 C.3     1  ZINC001461256440   -0.1800
     25 C25        -7.7219    1.6103   54.1888 C.3     1  ZINC001461256440   -0.1400
     26 C26        -9.5938    2.1406   52.6214 C.3     1  ZINC001461256440   -0.1800
     27 H27        -7.4593   -0.0533   58.5919 H       1  ZINC001461256440    0.0800
     28 H28        -9.1337   -0.3001   58.0405 H       1  ZINC001461256440    0.0700
     29 H29        -8.8143    0.6116   59.5355 H       1  ZINC001461256440    0.0700
     30 H30        -8.2340   -2.3534   59.1003 H       1  ZINC001461256440    0.0700
     31 H31        -7.9146   -1.4417   60.5954 H       1  ZINC001461256440    0.0700
     32 H32       -11.5429   -0.6990   58.4818 H       1  ZINC001461256440    0.1300
     33 H33       -11.3223   -2.0433   57.3363 H       1  ZINC001461256440    0.1400
     34 H34       -16.4470   -2.0562   60.8966 H       1  ZINC001461256440    0.0800
     35 H35       -16.5777   -3.7518   60.3713 H       1  ZINC001461256440    0.0800
     36 H36       -15.3903   -3.2948   61.6160 H       1  ZINC001461256440    0.0700
     37 H37       -15.9746   -3.1937   57.7752 H       1  ZINC001461256440    0.1800
     38 H38       -13.8428   -1.7628   55.7217 H       1  ZINC001461256440    0.4100
     39 H39       -12.9434   -4.7278   53.8180 H       1  ZINC001461256440    0.1000
     40 H40       -13.7762   -3.1626   53.6615 H       1  ZINC001461256440    0.1000
     41 H41       -11.5771   -2.0736   54.4108 H       1  ZINC001461256440    0.0800
     42 H42       -10.8190   -3.6667   54.1753 H       1  ZINC001461256440    0.0800
     43 H43       -11.5683   -3.6881   51.8206 H       1  ZINC001461256440    0.0700
     44 H44       -12.3631   -2.1122   52.0503 H       1  ZINC001461256440    0.0700
     45 H45        -9.3830   -2.6266   52.4548 H       1  ZINC001461256440    0.1100
     46 H46       -10.0969   -1.9159   50.9874 H       1  ZINC001461256440    0.1100
     47 H47        -9.7490    0.5695   55.6849 H       1  ZINC001461256440    0.0600
     48 H48       -10.1276    2.2638   55.2917 H       1  ZINC001461256440    0.0700
     49 H49       -11.0826    0.9474   54.5683 H       1  ZINC001461256440    0.0800
     50 H50        -7.0293    1.5698   53.3482 H       1  ZINC001461256440    0.0700
     51 H51        -7.7606    2.6272   54.5791 H       1  ZINC001461256440    0.0800
     52 H52        -7.3820    0.9330   54.9725 H       1  ZINC001461256440    0.0700
     53 H53       -10.5876    1.8413   52.2883 H       1  ZINC001461256440    0.0800
     54 H54        -9.6325    3.1576   53.0117 H       1  ZINC001461256440    0.0700
     55 H55        -8.9013    2.1003   51.7807 H       1  ZINC001461256440    0.0600
@<TRIPOS>BOND
     1     1     2    1
     2     1    27    1
     3     1    28    1
     4     1    29    1
     5     2     3    1
     6     2    30    1
     7     2    31    1
     8     3     4    1
     9     4     5    2
    10     4     6    1
    11     6     7    1
    12     6    32    1
    13     6    33    1
    14     7    12    1
    15     7     8    1
    16     8     9    2
    17     9    10    1
    18     9    11    1
    19    10    34    1
    20    10    35    1
    21    10    36    1
    22    11    12    2
    23    11    37    1
    24    12    13    1
    25    13    14   am
    26    13    38    1
    27    14    15    2
    28    14    16    1
    29    16    17    1
    30    16    39    1
    31    16    40    1
    32    17    18    1
    33    17    41    1
    34    17    42    1
    35    18    19    1
    36    18    43    1
    37    18    44    1
    38    19    20    1
    39    19    45    1
    40    19    46    1
    41    20    21    2
    42    20    22    1
    43    22    23    1
    44    23    24    1
    45    23    25    1
    46    23    26    1
    47    24    47    1
    48    24    48    1
    49    24    49    1
    50    25    50    1
    51    25    51    1
    52    25    52    1
    53    26    53    1
    54    26    54    1
    55    26    55    1
@<TRIPOS>SUBSTRUCTURE
     1 ZINC001461256440        1 TEMP              0 ****  ****    0 ROOT


##########                                Name:    ZINC001120957943
##########                DOCK_Rotatable_Bonds:                   4
##########                         Heavy_Atoms:                  27
##########                    Molecular_Weight:             396.802
##########                DOCK_Rotatable_Bonds:                   4
##########                       Formal_Charge:          -0.0199996
##########                     HBond_Acceptors:                  10
##########                        HBond_Donors:                   0
##########                         Heavy_Atoms:                  27
##########                          Grid_Score:          -33.623360
##########                     Grid_vdw_energy:          -33.807693
##########                      Grid_es_energy:            0.184333
##########           Internal_energy_repulsive:            5.764319

@<TRIPOS>MOLECULE
ZINC001120957943
 43 46 1 0 0
SMALL
USER_CHARGES


@<TRIPOS>ATOM
      1 C1        -12.5212   -1.9762   52.2979 C.3     1  ZINC001120957943    0.0900
      2 N2        -11.1967   -2.2742   52.8486 N.pl3   1  ZINC001120957943   -0.6000
      3 C3        -10.9460   -3.5641   53.4963 C.3     1  ZINC001120957943    0.2200
      4 C4        -12.0794   -3.8825   54.4371 C.2     1  ZINC001120957943    0.1600
      5 N5        -13.1383   -4.6008   54.1638 N.2     1  ZINC001120957943   -0.2500
      6 N6        -13.8997   -4.6662   55.2019 N.2     1  ZINC001120957943   -0.2800
      7 C7        -13.3628   -3.9959   56.1757 C.2     1  ZINC001120957943    0.1700
      8 C8        -13.8878   -3.7873   57.5739 C.3     1  ZINC001120957943   -0.0300
      9 C9        -13.1164   -2.6200   58.2044 C.3     1  ZINC001120957943   -0.1300
     10 C10       -11.6147   -2.8323   57.9925 C.3     1  ZINC001120957943   -0.1500
     11 H11       -11.3415   -3.8377   58.3130 H       1  ZINC001120957943    0.1300
     12 C12       -10.8339   -1.8054   58.8150 C.3     1  ZINC001120957943    0.4600
     13 F13       -11.0669   -2.0243   60.1770 F       1  ZINC001120957943   -0.1700
     14 F14        -9.4667   -1.9368   58.5487 F       1  ZINC001120957943   -0.1800
     15 F15       -11.2540   -0.5159   58.4714 F       1  ZINC001120957943   -0.1800
     16 C16       -11.2760   -2.6602   56.5071 C.3     1  ZINC001120957943    0.1100
     17 N17       -12.1907   -3.4860   55.7196 N.pl3   1  ZINC001120957943   -0.4700
     18 C18       -10.1801   -1.3350   52.7567 C.ar    1  ZINC001120957943    0.3700
     19 C19       -10.4302    0.0011   53.1155 C.ar    1  ZINC001120957943    0.0500
     20 N20        -9.4815    0.9026   53.0356 N.ar    1  ZINC001120957943   -0.3900
     21 C21        -8.2621    0.5510   52.6087 C.ar    1  ZINC001120957943    0.0400
     22 C22        -7.2283    1.4979   52.5145 C.ar    1  ZINC001120957943   -0.0600
     23 C23        -5.9970    1.1126   52.0774 C.ar    1  ZINC001120957943   -0.0400
     24 Cl24       -4.7233    2.2866   51.9630 Cl      1  ZINC001120957943   -0.0600
     25 C25        -5.7452   -0.2119   51.7208 C.ar    1  ZINC001120957943   -0.0800
     26 C26        -6.7228   -1.1553   51.7996 C.ar    1  ZINC001120957943   -0.0800
     27 C27        -8.0058   -0.7945   52.2459 C.ar    1  ZINC001120957943    0.1400
     28 N28        -8.9842   -1.7035   52.3382 N.ar    1  ZINC001120957943   -0.4700
     29 H29       -13.1357   -1.5043   53.0646 H       1  ZINC001120957943    0.0700
     30 H30       -12.4181   -1.3011   51.4485 H       1  ZINC001120957943    0.0800
     31 H31       -12.9953   -2.9017   51.9709 H       1  ZINC001120957943    0.0700
     32 H32       -10.8734   -4.3435   52.7379 H       1  ZINC001120957943    0.1200
     33 H33       -10.0122   -3.5139   54.0563 H       1  ZINC001120957943    0.1000
     34 H34       -14.9506   -3.5484   57.5361 H       1  ZINC001120957943    0.1100
     35 H35       -13.7339   -4.6911   58.1633 H       1  ZINC001120957943    0.1000
     36 H36       -13.4218   -1.6855   57.7336 H       1  ZINC001120957943    0.0900
     37 H37       -13.3306   -2.5769   59.2723 H       1  ZINC001120957943    0.1000
     38 H38       -11.3884   -1.6132   56.2254 H       1  ZINC001120957943    0.1000
     39 H39       -10.2501   -2.9814   56.3265 H       1  ZINC001120957943    0.1100
     40 H40       -11.4129    0.2876   53.4599 H       1  ZINC001120957943    0.1700
     41 H41        -7.4092    2.5270   52.7874 H       1  ZINC001120957943    0.1500
     42 H42        -4.7606   -0.4928   51.3770 H       1  ZINC001120957943    0.1400
     43 H43        -6.5138   -2.1773   51.5198 H       1  ZINC001120957943    0.1500
@<TRIPOS>BOND
     1     1     2    1
     2     1    29    1
     3     1    30    1
     4     1    31    1
     5     2     3    1
     6     2    18    1
     7     3     4    1
     8     3    32    1
     9     3    33    1
    10     4    17    1
    11     4     5    2
    12     5     6    1
    13     6     7    2
    14     7    17    1
    15     7     8    1
    16     8     9    1
    17     8    34    1
    18     8    35    1
    19     9    10    1
    20     9    36    1
    21     9    37    1
    22    10    11    1
    23    10    12    1
    24    10    16    1
    25    12    13    1
    26    12    14    1
    27    12    15    1
    28    16    17    1
    29    16    38    1
    30    16    39    1
    31    18    28   ar
    32    18    19   ar
    33    19    20   ar
    34    19    40    1
    35    20    21   ar
    36    21    27   ar
    37    21    22   ar
    38    22    23   ar
    39    22    41    1
    40    23    24    1
    41    23    25   ar
    42    25    26   ar
    43    25    42    1
    44    26    27   ar
    45    26    43    1
    46    27    28   ar
@<TRIPOS>SUBSTRUCTURE
     1 ZINC001120957943        1 TEMP              0 ****  ****    0 ROOT


##########                                Name:    ZINC000432058199
##########                DOCK_Rotatable_Bonds:                   5
##########                         Heavy_Atoms:                  30
##########                    Molecular_Weight:             406.441
##########                DOCK_Rotatable_Bonds:                   5
##########                       Formal_Charge:        -4.02331e-07
##########                     HBond_Acceptors:                   8
##########                        HBond_Donors:                   1
##########                         Heavy_Atoms:                  30
##########                          Grid_Score:          -33.596985
##########                     Grid_vdw_energy:          -33.840427
##########                      Grid_es_energy:            0.243442
##########           Internal_energy_repulsive:           16.023115

@<TRIPOS>MOLECULE
ZINC000432058199
 52 55 1 0 0
SMALL
USER_CHARGES


@<TRIPOS>ATOM
      1 C1         -9.5646   -1.4001   51.8978 C.3     1  ZINC000432058199    0.0300
      2 O2         -8.1674   -1.1586   51.7202 O.3     1  ZINC000432058199   -0.3100
      3 C3         -7.6771    0.0122   52.2059 C.ar    1  ZINC000432058199    0.1300
      4 C4         -8.5130    0.8841   52.8896 C.ar    1  ZINC000432058199   -0.1900
      5 C5         -8.0183    2.0761   53.3853 C.ar    1  ZINC000432058199   -0.0800
      6 C6         -6.6903    2.4056   53.2031 C.ar    1  ZINC000432058199   -0.1100
      7 C7         -5.8442    1.5353   52.5182 C.ar    1  ZINC000432058199    0.0100
      8 C8         -4.4157    1.8871   52.3214 C.2     1  ZINC000432058199    0.2100
      9 N9         -3.6000    1.3598   51.4462 N.2     1  ZINC000432058199   -0.3700
     10 O10        -2.5019    1.8660   51.5420 O.3     1  ZINC000432058199    0.1200
     11 C11        -2.5058    2.7882   52.5096 C.2     1  ZINC000432058199    0.1600
     12 C12        -1.3392    3.6400   52.9390 C.3     1  ZINC000432058199    0.2500
     13 H13        -0.8069    3.1444   53.7509 H       1  ZINC000432058199    0.1500
     14 C14        -1.8500    4.9999   53.4193 C.3     1  ZINC000432058199   -0.1700
     15 N15        -0.4313    3.8320   51.8054 N.am    1  ZINC000432058199   -0.5800
     16 C16         0.8208    3.3630   51.7573 C.2     1  ZINC000432058199    0.7000
     17 O17         1.3384    2.7260   52.6537 O.2     1  ZINC000432058199   -0.5100
     18 N18         1.4426    3.6751   50.6061 N.am    1  ZINC000432058199   -0.7200
     19 C19         0.4778    4.4438   49.8009 C.3     1  ZINC000432058199    0.1400
     20 H20         0.8561    5.4468   49.6035 H       1  ZINC000432058199    0.1400
     21 C21         0.1764    3.7286   48.5091 C.ar    1  ZINC000432058199   -0.1000
     22 C22         0.2229    4.4168   47.3110 C.ar    1  ZINC000432058199   -0.1000
     23 C23        -0.0536    3.7609   46.1260 C.ar    1  ZINC000432058199   -0.0800
     24 C24        -0.0034    4.5111   44.8201 C.3     1  ZINC000432058199   -0.1200
     25 C25        -0.3756    2.4166   46.1390 C.ar    1  ZINC000432058199   -0.1100
     26 C26        -0.4217    1.7284   47.3370 C.ar    1  ZINC000432058199   -0.0800
     27 C27        -0.7733    0.2630   47.3512 C.3     1  ZINC000432058199   -0.1200
     28 C28        -0.1411    2.3833   48.5215 C.ar    1  ZINC000432058199   -0.1000
     29 C29        -0.7562    4.4981   50.6797 C.2     1  ZINC000432058199    0.5300
     30 O30        -1.8134    5.0342   50.4254 O.2     1  ZINC000432058199   -0.4500
     31 N31        -3.7160    2.8171   53.0098 N.2     1  ZINC000432058199   -0.4500
     32 C32        -6.3415    0.3326   52.0237 C.ar    1  ZINC000432058199   -0.1200
     33 H33        -9.8240   -2.3667   51.4657 H       1  ZINC000432058199    0.1000
     34 H34        -9.8005   -1.4029   52.9620 H       1  ZINC000432058199    0.0600
     35 H35       -10.1351   -0.6152   51.4013 H       1  ZINC000432058199    0.0600
     36 H36        -9.5528    0.6309   53.0343 H       1  ZINC000432058199    0.1400
     37 H37        -8.6728    2.7515   53.9163 H       1  ZINC000432058199    0.1400
     38 H38        -6.3070    3.3378   53.5911 H       1  ZINC000432058199    0.1400
     39 H39        -2.3823    5.4954   52.6075 H       1  ZINC000432058199    0.0900
     40 H40        -2.5255    4.8570   54.2628 H       1  ZINC000432058199    0.0900
     41 H41        -1.0061    5.6159   53.7299 H       1  ZINC000432058199    0.0900
     42 H42         2.3498    3.4404   50.3552 H       1  ZINC000432058199    0.4500
     43 H43         0.4749    5.4669   47.3009 H       1  ZINC000432058199    0.1200
     44 H44         1.0031    4.4524   44.4057 H       1  ZINC000432058199    0.0700
     45 H45        -0.7112    4.0683   44.1193 H       1  ZINC000432058199    0.0700
     46 H46        -0.2658    5.5552   44.9905 H       1  ZINC000432058199    0.0700
     47 H47        -0.5917    1.9042   45.2132 H       1  ZINC000432058199    0.1300
     48 H48         0.1364   -0.3298   47.2552 H       1  ZINC000432058199    0.0700
     49 H49        -1.2696    0.0176   48.2900 H       1  ZINC000432058199    0.0700
     50 H50        -1.4409    0.0415   46.5185 H       1  ZINC000432058199    0.0700
     51 H51        -0.1770    1.8457   49.4575 H       1  ZINC000432058199    0.1300
     52 H52        -5.6898   -0.3451   51.4923 H       1  ZINC000432058199    0.1400
@<TRIPOS>BOND
     1     1     2    1
     2     1    33    1
     3     1    34    1
     4     1    35    1
     5     2     3    1
     6     3    32   ar
     7     3     4   ar
     8     4     5   ar
     9     4    36    1
    10     5     6   ar
    11     5    37    1
    12     6     7   ar
    13     6    38    1
    14     7     8    1
    15     7    32   ar
    16     8    31    1
    17     8     9    2
    18     9    10    1
    19    10    11    1
    20    11    12    1
    21    11    31    2
    22    12    13    1
    23    12    14    1
    24    12    15    1
    25    14    39    1
    26    14    40    1
    27    14    41    1
    28    15    29   am
    29    15    16   am
    30    16    17    2
    31    16    18   am
    32    18    19    1
    33    18    42    1
    34    19    20    1
    35    19    21    1
    36    19    29    1
    37    21    28   ar
    38    21    22   ar
    39    22    23   ar
    40    22    43    1
    41    23    24    1
    42    23    25   ar
    43    24    44    1
    44    24    45    1
    45    24    46    1
    46    25    26   ar
    47    25    47    1
    48    26    27    1
    49    26    28   ar
    50    27    48    1
    51    27    49    1
    52    27    50    1
    53    28    51    1
    54    29    30    2
    55    32    52    1
@<TRIPOS>SUBSTRUCTURE
     1 ZINC000432058199        1 TEMP              0 ****  ****    0 ROOT


##########                                Name:    ZINC000504243286
##########                DOCK_Rotatable_Bonds:                   7
##########                         Heavy_Atoms:                  29
##########                    Molecular_Weight:             408.337
##########                DOCK_Rotatable_Bonds:                   7
##########                       Formal_Charge:           0.0299994
##########                     HBond_Acceptors:                  11
##########                        HBond_Donors:                   3
##########                         Heavy_Atoms:                  29
##########                          Grid_Score:          -33.592754
##########                     Grid_vdw_energy:          -33.125374
##########                      Grid_es_energy:           -0.467379
##########           Internal_energy_repulsive:           12.989830

@<TRIPOS>MOLECULE
ZINC000504243286
 44 46 1 0 0
SMALL
USER_CHARGES


@<TRIPOS>ATOM
      1 O1        -11.3932   -1.3628   51.5802 O.2     1  ZINC000504243286   -0.5200
      2 C2        -11.5306   -1.3945   52.7849 C.2     1  ZINC000504243286    0.5200
      3 C3        -12.8557   -1.7925   53.3821 C.3     1  ZINC000504243286   -0.1600
      4 C4        -12.8772   -3.3047   53.6136 C.3     1  ZINC000504243286    0.1300
      5 N5        -14.1946   -3.7031   54.1157 N.pl3   1  ZINC000504243286   -0.7200
      6 C6        -14.6294   -3.2578   55.3661 C.ar    1  ZINC000504243286    0.3100
      7 C7        -15.5801   -2.2492   55.4536 C.ar    1  ZINC000504243286   -0.1900
      8 C8        -16.0083   -1.8114   56.6918 C.ar    1  ZINC000504243286    0.0200
      9 C9        -15.4915   -2.3762   57.8432 C.ar    1  ZINC000504243286   -0.2400
     10 C10       -15.9614   -1.8964   59.1922 C.3     1  ZINC000504243286    0.5200
     11 F11       -15.1470   -0.8436   59.6225 F       1  ZINC000504243286   -0.1700
     12 F12       -17.2845   -1.4526   59.0944 F       1  ZINC000504243286   -0.1700
     13 F13       -15.8892   -2.9479   60.1122 F       1  ZINC000504243286   -0.1700
     14 C14       -14.5447   -3.3808   57.7595 C.ar    1  ZINC000504243286    0.0400
     15 C15       -14.1161   -3.8268   56.5249 C.ar    1  ZINC000504243286   -0.1200
     16 N16       -13.1028   -4.9019   56.4364 N.pl3   1  ZINC000504243286    0.0400
     17 O17       -13.1836   -5.7443   55.5604 O.2     1  ZINC000504243286   -0.1700
     18 O18       -12.1880   -4.9443   57.2395 O.2     1  ZINC000504243286   -0.1400
     19 N19       -10.4963   -1.0793   53.5895 N.am    1  ZINC000504243286   -0.6700
     20 C20        -9.2645   -0.7094   53.0345 C.ar    1  ZINC000504243286    0.1200
     21 C21        -8.6390   -1.5364   52.1111 C.ar    1  ZINC000504243286   -0.1000
     22 C22        -7.4266   -1.1748   51.5625 C.ar    1  ZINC000504243286   -0.1200
     23 C23        -6.8193    0.0238   51.9314 C.ar    1  ZINC000504243286    0.1300
     24 N24        -5.6131    0.5984   51.5232 N.am    1  ZINC000504243286   -0.6600
     25 C25        -5.3837    1.7786   52.1231 C.2     1  ZINC000504243286    0.5300
     26 O26        -4.4187    2.4948   51.9583 O.2     1  ZINC000504243286   -0.5000
     27 C27        -6.5558    2.0470   53.0428 C.3     1  ZINC000504243286   -0.1200
     28 C28        -7.4528    0.8450   52.8563 C.ar    1  ZINC000504243286   -0.1200
     29 C29        -8.6652    0.4902   53.4013 C.ar    1  ZINC000504243286   -0.0600
     30 H30       -12.9953   -1.2773   54.3324 H       1  ZINC000504243286    0.1100
     31 H31       -13.6593   -1.5181   52.6985 H       1  ZINC000504243286    0.1100
     32 H32       -12.6757   -3.8191   52.6740 H       1  ZINC000504243286    0.0800
     33 H33       -12.1139   -3.5712   54.3447 H       1  ZINC000504243286    0.0900
     34 H34       -14.7649   -4.2762   53.5798 H       1  ZINC000504243286    0.4100
     35 H35       -15.9840   -1.8073   54.5547 H       1  ZINC000504243286    0.1600
     36 H36       -16.7473   -1.0268   56.7607 H       1  ZINC000504243286    0.1600
     37 H37       -14.1429   -3.8199   58.6608 H       1  ZINC000504243286    0.1600
     38 H38       -10.6049   -1.1086   54.5530 H       1  ZINC000504243286    0.4200
     39 H39        -9.1039   -2.4671   51.8214 H       1  ZINC000504243286    0.1400
     40 H40        -6.9459   -1.8230   50.8448 H       1  ZINC000504243286    0.1300
     41 H41        -5.0106    0.1922   50.8807 H       1  ZINC000504243286    0.4100
     42 H42        -6.2208    2.1166   54.0777 H       1  ZINC000504243286    0.1300
     43 H43        -7.0731    2.9593   52.7457 H       1  ZINC000504243286    0.1300
     44 H44        -9.1486    1.1406   54.1152 H       1  ZINC000504243286    0.1500
@<TRIPOS>BOND
     1     1     2    2
     2     2     3    1
     3     2    19   am
     4     3     4    1
     5     3    30    1
     6     3    31    1
     7     4     5    1
     8     4    32    1
     9     4    33    1
    10     5     6    1
    11     5    34    1
    12     6    15   ar
    13     6     7   ar
    14     7     8   ar
    15     7    35    1
    16     8     9   ar
    17     8    36    1
    18     9    10    1
    19     9    14   ar
    20    10    11    1
    21    10    12    1
    22    10    13    1
    23    14    15   ar
    24    14    37    1
    25    15    16    1
    26    16    17    2
    27    16    18    2
    28    19    20    1
    29    19    38    1
    30    20    29   ar
    31    20    21   ar
    32    21    22   ar
    33    21    39    1
    34    22    23   ar
    35    22    40    1
    36    23    28   ar
    37    23    24    1
    38    24    25   am
    39    24    41    1
    40    25    26    2
    41    25    27    1
    42    27    28    1
    43    27    42    1
    44    27    43    1
    45    28    29   ar
    46    29    44    1
@<TRIPOS>SUBSTRUCTURE
     1 ZINC000504243286        1 TEMP              0 ****  ****    0 ROOT


##########                                Name:    ZINC000771225867
##########                DOCK_Rotatable_Bonds:                   9
##########                         Heavy_Atoms:                  23
##########                    Molecular_Weight:             355.802
##########                DOCK_Rotatable_Bonds:                   9
##########                       Formal_Charge:        -3.12924e-07
##########                     HBond_Acceptors:                   9
##########                        HBond_Donors:                   3
##########                         Heavy_Atoms:                  23
##########                          Grid_Score:          -33.580090
##########                     Grid_vdw_energy:          -33.412548
##########                      Grid_es_energy:           -0.167542
##########           Internal_energy_repulsive:            9.536555

@<TRIPOS>MOLECULE
ZINC000771225867
 37 38 1 0 0
SMALL
USER_CHARGES


@<TRIPOS>ATOM
      1 C1         -3.9654    1.7847   51.9899 C.3     1  ZINC000771225867    0.0400
      2 O2         -5.0897    0.9046   51.9295 O.3     1  ZINC000771225867   -0.3600
      3 C3         -6.2902    1.4198   52.2689 C.2     1  ZINC000771225867    0.5500
      4 O4         -6.3805    2.5889   52.5949 O.2     1  ZINC000771225867   -0.4900
      5 C5         -7.4439    0.6003   52.2458 C.2     1  ZINC000771225867   -0.3400
      6 C6         -7.4921   -0.7163   51.8686 C.2     1  ZINC000771225867    0.2700
      7 Cl7        -6.0939   -1.6024   51.3456 Cl      1  ZINC000771225867    0.0400
      8 N8         -8.6873   -1.2457   51.9384 N.2     1  ZINC000771225867   -0.5500
      9 C9         -9.6572   -0.4781   52.3464 C.2     1  ZINC000771225867    0.3400
     10 N10       -10.9700   -0.8754   52.4779 N.pl3   1  ZINC000771225867   -0.6700
     11 C11       -11.3852   -2.1993   52.0080 C.3     1  ZINC000771225867    0.1700
     12 C12       -12.5749   -2.6656   52.8069 C.ar    1  ZINC000771225867   -0.0800
     13 C13       -13.7931   -2.0269   52.6683 C.ar    1  ZINC000771225867   -0.1300
     14 C14       -14.8867   -2.4523   53.3999 C.ar    1  ZINC000771225867   -0.0800
     15 C15       -14.7644   -3.5170   54.2713 C.ar    1  ZINC000771225867   -0.2000
     16 C16       -13.5428   -4.1599   54.4122 C.ar    1  ZINC000771225867    0.1300
     17 O17       -13.4199   -5.2079   55.2686 O.3     1  ZINC000771225867   -0.2900
     18 C18       -13.4321   -4.9088   56.6658 C.3     1  ZINC000771225867    0.0400
     19 C19       -12.0729   -4.4106   57.0847 C.2     1  ZINC000771225867    0.5200
     20 N20       -11.8452   -3.0869   57.1962 N.am    1  ZINC000771225867   -0.8500
     21 O21       -11.1839   -5.2009   57.3215 O.2     1  ZINC000771225867   -0.5200
     22 C22       -12.4487   -3.7347   53.6730 C.ar    1  ZINC000771225867   -0.1200
     23 S23        -9.0737    1.0879   52.7041 S.3     1  ZINC000771225867    0.2200
     24 H24        -4.1252    2.6251   51.3144 H       1  ZINC000771225867    0.0600
     25 H25        -3.8480    2.1546   53.0085 H       1  ZINC000771225867    0.0600
     26 H26        -3.0657    1.2457   51.6931 H       1  ZINC000771225867    0.1000
     27 H27       -11.6193   -0.2784   52.8817 H       1  ZINC000771225867    0.4200
     28 H28       -11.6554   -2.1424   50.9535 H       1  ZINC000771225867    0.0900
     29 H29       -10.5635   -2.9042   52.1349 H       1  ZINC000771225867    0.0900
     30 H30       -13.8907   -1.1940   51.9879 H       1  ZINC000771225867    0.1300
     31 H31       -15.8372   -1.9515   53.2902 H       1  ZINC000771225867    0.1300
     32 H32       -15.6187   -3.8487   54.8427 H       1  ZINC000771225867    0.1300
     33 H33       -14.1784   -4.1403   56.8664 H       1  ZINC000771225867    0.1000
     34 H34       -13.6779   -5.8097   57.2281 H       1  ZINC000771225867    0.1000
     35 H35       -10.9707   -2.7663   57.4669 H       1  ZINC000771225867    0.4000
     36 H36       -12.5559   -2.4549   57.0057 H       1  ZINC000771225867    0.4100
     37 H37       -11.4968   -4.2334   53.7808 H       1  ZINC000771225867    0.1400
@<TRIPOS>BOND
     1     1     2    1
     2     1    24    1
     3     1    25    1
     4     1    26    1
     5     2     3    1
     6     3     4    2
     7     3     5    1
     8     5    23    1
     9     5     6    2
    10     6     7    1
    11     6     8    1
    12     8     9    2
    13     9    10    1
    14     9    23    1
    15    10    11    1
    16    10    27    1
    17    11    12    1
    18    11    28    1
    19    11    29    1
    20    12    22   ar
    21    12    13   ar
    22    13    14   ar
    23    13    30    1
    24    14    15   ar
    25    14    31    1
    26    15    16   ar
    27    15    32    1
    28    16    17    1
    29    16    22   ar
    30    17    18    1
    31    18    19    1
    32    18    33    1
    33    18    34    1
    34    19    20   am
    35    19    21    2
    36    20    35    1
    37    20    36    1
    38    22    37    1
@<TRIPOS>SUBSTRUCTURE
     1 ZINC000771225867        1 TEMP              0 ****  ****    0 ROOT


##########                                Name:    ZINC000583220082
##########                DOCK_Rotatable_Bonds:                   9
##########                         Heavy_Atoms:                  29
##########                    Molecular_Weight:             417.492
##########                DOCK_Rotatable_Bonds:                   9
##########                       Formal_Charge:          -0.0400006
##########                     HBond_Acceptors:                  11
##########                        HBond_Donors:                   3
##########                         Heavy_Atoms:                  29
##########                          Grid_Score:          -33.568058
##########                     Grid_vdw_energy:          -32.216457
##########                      Grid_es_energy:           -1.351601
##########           Internal_energy_repulsive:           15.299881

@<TRIPOS>MOLECULE
ZINC000583220082
 52 54 1 0 0
SMALL
USER_CHARGES


@<TRIPOS>ATOM
      1 C1         -8.5410   -0.1844   67.8359 C.3     1  ZINC000583220082    0.0800
      2 N2         -8.3891    0.6281   66.6264 N.am    1  ZINC000583220082   -0.6300
      3 C3         -7.9876    2.0329   66.7332 C.3     1  ZINC000583220082    0.0800
      4 C4         -8.6187    0.0830   65.4152 C.2     1  ZINC000583220082    0.5100
      5 O5         -8.9526   -1.0796   65.3269 O.2     1  ZINC000583220082   -0.5300
      6 C6         -8.4607    0.9182   64.1709 C.3     1  ZINC000583220082   -0.1000
      7 C7         -9.4472    0.4584   63.1286 C.ar    1  ZINC000583220082   -0.0800
      8 C8        -10.7021    1.0357   63.0644 C.ar    1  ZINC000583220082   -0.0800
      9 C9        -11.6087    0.6168   62.1105 C.ar    1  ZINC000583220082   -0.1400
     10 C10       -11.2584   -0.3854   61.2144 C.ar    1  ZINC000583220082    0.1400
     11 N11       -12.1729   -0.8114   60.2477 N.am    1  ZINC000583220082   -0.6400
     12 C12       -12.7665   -2.0157   60.3660 C.2     1  ZINC000583220082    0.5100
     13 O13       -12.5067   -2.7301   61.3122 O.2     1  ZINC000583220082   -0.4900
     14 C14       -13.7440   -2.4710   59.3326 C.2     1  ZINC000583220082    0.5100
     15 O15       -14.9273   -2.2408   59.4734 O.2     1  ZINC000583220082   -0.5100
     16 N16       -13.3121   -3.1375   58.2437 N.am    1  ZINC000583220082   -0.5800
     17 C17       -14.2571   -3.5893   57.2112 C.3     1  ZINC000583220082    0.0600
     18 C18       -13.7493   -3.1149   55.8454 C.3     1  ZINC000583220082    0.0300
     19 N19       -12.3633   -3.5645   55.6587 N.3     1  ZINC000583220082   -0.4300
     20 C20       -11.9241   -3.2964   54.3753 C.2     1  ZINC000583220082    0.2900
     21 N21       -12.6014   -2.7282   53.4001 N.2     1  ZINC000583220082   -0.5700
     22 C22       -11.9727   -2.5731   52.2532 C.2     1  ZINC000583220082    0.5400
     23 N23       -12.6028   -1.9818   51.1590 N.pl3   1  ZINC000583220082   -0.8200
     24 N24       -10.7379   -2.9926   52.1771 N.2     1  ZINC000583220082   -0.5500
     25 S25       -10.3699   -3.6271   53.7099 S.3     1  ZINC000583220082    0.2000
     26 C26       -11.4691   -2.9639   56.6574 C.3     1  ZINC000583220082    0.0500
     27 C27       -11.8827   -3.4269   58.0535 C.3     1  ZINC000583220082    0.1100
     28 C28        -9.9966   -0.9630   61.2816 C.ar    1  ZINC000583220082   -0.1200
     29 C29        -9.0934   -0.5359   62.2349 C.ar    1  ZINC000583220082   -0.0800
     30 H30        -9.5663   -0.1084   68.1983 H       1  ZINC000583220082    0.0500
     31 H31        -8.3134   -1.2252   67.6056 H       1  ZINC000583220082    0.0800
     32 H32        -7.8565    0.1758   68.6039 H       1  ZINC000583220082    0.0700
     33 H33        -7.8484    2.2921   67.7827 H       1  ZINC000583220082    0.0800
     34 H34        -7.0526    2.1855   66.1941 H       1  ZINC000583220082    0.0600
     35 H35        -8.7630    2.6661   66.3022 H       1  ZINC000583220082    0.0600
     36 H36        -8.6464    1.9652   64.4100 H       1  ZINC000583220082    0.1000
     37 H37        -7.4470    0.8078   63.7855 H       1  ZINC000583220082    0.1000
     38 H38       -10.9738    1.8148   63.7612 H       1  ZINC000583220082    0.1300
     39 H39       -12.5888    1.0676   62.0613 H       1  ZINC000583220082    0.1300
     40 H40       -12.3805   -0.2405   59.4915 H       1  ZINC000583220082    0.4200
     41 H41       -14.3178   -4.6777   57.2213 H       1  ZINC000583220082    0.0900
     42 H42       -15.2415   -3.1631   57.4040 H       1  ZINC000583220082    0.1700
     43 H43       -14.3767   -3.5336   55.0585 H       1  ZINC000583220082    0.1100
     44 H44       -13.7876   -2.0265   55.8011 H       1  ZINC000583220082    0.0700
     45 H45       -12.1003   -1.8015   50.3492 H       1  ZINC000583220082    0.4200
     46 H46       -13.5437   -1.7510   51.2076 H       1  ZINC000583220082    0.4200
     47 H47       -10.4428   -3.2733   56.4594 H       1  ZINC000583220082    0.1100
     48 H48       -11.5392   -1.8777   56.6019 H       1  ZINC000583220082    0.0600
     49 H49       -11.2970   -2.8959   58.8038 H       1  ZINC000583220082    0.1100
     50 H50       -11.7169   -4.5001   58.1474 H       1  ZINC000583220082    0.0900
     51 H51        -9.7210   -1.7423   60.5864 H       1  ZINC000583220082    0.1400
     52 H52        -8.1123   -0.9843   62.2876 H       1  ZINC000583220082    0.1300
@<TRIPOS>BOND
     1     1     2    1
     2     1    30    1
     3     1    31    1
     4     1    32    1
     5     2     3    1
     6     2     4   am
     7     3    33    1
     8     3    34    1
     9     3    35    1
    10     4     5    2
    11     4     6    1
    12     6     7    1
    13     6    36    1
    14     6    37    1
    15     7    29   ar
    16     7     8   ar
    17     8     9   ar
    18     8    38    1
    19     9    10   ar
    20     9    39    1
    21    10    11    1
    22    10    28   ar
    23    11    12   am
    24    11    40    1
    25    12    13    2
    26    12    14    1
    27    14    15    2
    28    14    16   am
    29    16    27    1
    30    16    17    1
    31    17    18    1
    32    17    41    1
    33    17    42    1
    34    18    19    1
    35    18    43    1
    36    18    44    1
    37    19    20    1
    38    19    26    1
    39    20    25    1
    40    20    21    2
    41    21    22    1
    42    22    23    1
    43    22    24    2
    44    23    45    1
    45    23    46    1
    46    24    25    1
    47    26    27    1
    48    26    47    1
    49    26    48    1
    50    27    49    1
    51    27    50    1
    52    28    29   ar
    53    28    51    1
    54    29    52    1
@<TRIPOS>SUBSTRUCTURE
     1 ZINC000583220082        1 TEMP              0 ****  ****    0 ROOT


##########                                Name:    ZINC000581017854
##########                DOCK_Rotatable_Bonds:                   6
##########                         Heavy_Atoms:                  24
##########                    Molecular_Weight:             330.334
##########                DOCK_Rotatable_Bonds:                   6
##########                       Formal_Charge:           0.0099998
##########                     HBond_Acceptors:                   6
##########                        HBond_Donors:                   2
##########                         Heavy_Atoms:                  24
##########                          Grid_Score:          -33.452053
##########                     Grid_vdw_energy:          -32.469612
##########                      Grid_es_energy:           -0.982442
##########           Internal_energy_repulsive:            7.378593

@<TRIPOS>MOLECULE
ZINC000581017854
 40 42 1 0 0
SMALL
USER_CHARGES


@<TRIPOS>ATOM
      1 C1         -1.9162    3.3680   52.3564 C.3     1  ZINC000581017854   -0.1600
      2 C2         -2.5045    2.1483   51.6442 C.3     1  ZINC000581017854    0.1500
      3 H3         -1.9787    1.2500   51.9677 H       1  ZINC000581017854    0.1100
      4 C4         -3.9895    2.0225   51.9906 C.3     1  ZINC000581017854    0.0500
      5 O5         -4.4835    0.7667   51.5205 O.3     1  ZINC000581017854   -0.3100
      6 C6         -5.7555    0.4357   51.8661 C.ar    1  ZINC000581017854    0.1600
      7 C7         -6.2218   -0.8523   51.6470 C.ar    1  ZINC000581017854   -0.2200
      8 C8         -7.5153   -1.1878   51.9989 C.ar    1  ZINC000581017854   -0.0500
      9 C9         -8.3458   -0.2413   52.5685 C.ar    1  ZINC000581017854   -0.1900
     10 C10        -7.8838    1.0458   52.7883 C.ar    1  ZINC000581017854    0.1400
     11 F11        -8.6972    1.9696   53.3452 F       1  ZINC000581017854   -0.1300
     12 C12        -6.5873    1.3838   52.4436 C.ar    1  ZINC000581017854   -0.1900
     13 N13        -2.3527    2.3082   50.1959 N.am    1  ZINC000581017854   -0.7300
     14 C14        -1.1864    1.9884   49.6012 C.2     1  ZINC000581017854    0.5900
     15 O15        -0.2590    1.5681   50.2674 O.2     1  ZINC000581017854   -0.5400
     16 C16        -1.0347    2.1471   48.1486 C.2     1  ZINC000581017854   -0.2200
     17 C17        -1.3435    1.2274   47.1906 C.2     1  ZINC000581017854    0.1100
     18 N18        -1.0676    1.7330   45.9639 N.pl3   1  ZINC000581017854   -0.5700
     19 C19        -0.5637    3.0128   46.0727 C.ar    1  ZINC000581017854    0.1100
     20 C20        -0.1336    3.9486   45.1382 C.ar    1  ZINC000581017854   -0.1600
     21 C21         0.3317    5.1778   45.5591 C.ar    1  ZINC000581017854    0.1200
     22 F22         0.7481    6.0841   44.6479 F       1  ZINC000581017854   -0.1400
     23 C23         0.3749    5.4917   46.9117 C.ar    1  ZINC000581017854   -0.1700
     24 C24        -0.0473    4.5764   47.8510 C.ar    1  ZINC000581017854   -0.0300
     25 C25        -0.5244    3.3350   47.4389 C.ar    1  ZINC000581017854   -0.0700
     26 H26        -2.0292    3.2490   53.4340 H       1  ZINC000581017854    0.0700
     27 H27        -0.8584    3.4576   52.1097 H       1  ZINC000581017854    0.0700
     28 H28        -2.4421    4.2663   52.0330 H       1  ZINC000581017854    0.0700
     29 H29        -4.1167    2.0814   53.0715 H       1  ZINC000581017854    0.0700
     30 H30        -4.5433    2.8319   51.5148 H       1  ZINC000581017854    0.0800
     31 H31        -5.5741   -1.5928   51.2014 H       1  ZINC000581017854    0.1400
     32 H32        -7.8778   -2.1907   51.8281 H       1  ZINC000581017854    0.1400
     33 H33        -9.3566   -0.5056   52.8424 H       1  ZINC000581017854    0.1400
     34 H34        -6.2263    2.3871   52.6149 H       1  ZINC000581017854    0.1400
     35 H35        -3.0916    2.6444   49.6650 H       1  ZINC000581017854    0.4000
     36 H36        -1.7472    0.2440   47.3807 H       1  ZINC000581017854    0.1800
     37 H37        -1.2045    1.2614   45.1273 H       1  ZINC000581017854    0.4200
     38 H38        -0.1631    3.7136   44.0845 H       1  ZINC000581017854    0.1400
     39 H39         0.7415    6.4570   47.2283 H       1  ZINC000581017854    0.1400
     40 H40        -0.0124    4.8225   48.9020 H       1  ZINC000581017854    0.1500
@<TRIPOS>BOND
     1     1     2    1
     2     1    26    1
     3     1    27    1
     4     1    28    1
     5     2     3    1
     6     2     4    1
     7     2    13    1
     8     4     5    1
     9     4    29    1
    10     4    30    1
    11     5     6    1
    12     6    12   ar
    13     6     7   ar
    14     7     8   ar
    15     7    31    1
    16     8     9   ar
    17     8    32    1
    18     9    10   ar
    19     9    33    1
    20    10    11    1
    21    10    12   ar
    22    12    34    1
    23    13    14   am
    24    13    35    1
    25    14    15    2
    26    14    16    1
    27    16    25    1
    28    16    17    2
    29    17    18    1
    30    17    36    1
    31    18    19    1
    32    18    37    1
    33    19    25   ar
    34    19    20   ar
    35    20    21   ar
    36    20    38    1
    37    21    22    1
    38    21    23   ar
    39    23    24   ar
    40    23    39    1
    41    24    25   ar
    42    24    40    1
@<TRIPOS>SUBSTRUCTURE
     1 ZINC000581017854        1 TEMP              0 ****  ****    0 ROOT


##########                                Name:    ZINC000263872566
##########                DOCK_Rotatable_Bonds:                   9
##########                         Heavy_Atoms:                  26
##########                    Molecular_Weight:             362.469
##########                DOCK_Rotatable_Bonds:                   9
##########                       Formal_Charge:           0.0300001
##########                     HBond_Acceptors:                   6
##########                        HBond_Donors:                   2
##########                         Heavy_Atoms:                  26
##########                          Grid_Score:          -33.441162
##########                     Grid_vdw_energy:          -30.581352
##########                      Grid_es_energy:           -2.859808
##########           Internal_energy_repulsive:           20.973511

@<TRIPOS>MOLECULE
ZINC000263872566
 56 57 1 0 0
SMALL
USER_CHARGES


@<TRIPOS>ATOM
      1 C1          2.8916    1.9691   57.6432 C.3     1  ZINC000263872566   -0.1800
      2 C2          1.6615    1.8233   58.5414 C.3     1  ZINC000263872566    0.1400
      3 H3          1.5688    0.7866   58.8650 H       1  ZINC000263872566    0.0700
      4 O4          1.8039    2.6683   59.6849 O.3     1  ZINC000263872566   -0.5600
      5 C5          0.4281    2.2218   57.7728 C.ar    1  ZINC000263872566   -0.0800
      6 C6         -0.6962    1.4181   57.8053 C.ar    1  ZINC000263872566   -0.0900
      7 C7         -1.8277    1.7835   57.1002 C.ar    1  ZINC000263872566   -0.1000
      8 C8         -1.8351    2.9529   56.3632 C.ar    1  ZINC000263872566   -0.1100
      9 C9         -3.0685    3.3512   55.5942 C.3     1  ZINC000263872566    0.1800
     10 N10        -2.8944    3.0084   54.1805 N.am    1  ZINC000263872566   -0.7400
     11 C11        -2.4946    3.9502   53.3032 C.2     1  ZINC000263872566    0.7100
     12 O12        -2.2785    5.0842   53.6850 O.2     1  ZINC000263872566   -0.5900
     13 N13        -2.3344    3.6350   52.0026 N.am    1  ZINC000263872566   -0.6300
     14 C14        -1.8934    4.6492   51.0353 C.3     1  ZINC000263872566    0.1100
     15 C15        -0.6669    4.1170   50.2876 C.3     1  ZINC000263872566   -0.1200
     16 C16        -1.0027    2.7595   49.6659 C.3     1  ZINC000263872566   -0.0800
     17 C17         0.1908    2.2486   48.9009 C.2     1  ZINC000263872566    0.4700
     18 O18         1.1058    2.9937   48.6406 O.2     1  ZINC000263872566   -0.5000
     19 O19         0.2376    0.9658   48.5085 O.3     1  ZINC000263872566   -0.3500
     20 C20         0.2011    0.7118   47.0793 C.3     1  ZINC000263872566    0.1200
     21 C21        -0.4380   -0.6540   46.8202 C.3     1  ZINC000263872566   -0.1800
     22 C22        -0.6235    1.8000   46.3889 C.3     1  ZINC000263872566   -0.1400
     23 C23         1.6262    0.7218   46.5229 C.3     1  ZINC000263872566   -0.1800
     24 C24        -1.3632    1.7651   50.7719 C.3     1  ZINC000263872566   -0.1300
     25 C25        -2.5918    2.2691   51.5262 C.3     1  ZINC000263872566    0.1300
     26 C26        -0.7113    3.7574   56.3319 C.ar    1  ZINC000263872566   -0.1000
     27 C27         0.4188    3.3938   57.0398 C.ar    1  ZINC000263872566   -0.1100
     28 H28         2.9842    3.0058   57.3196 H       1  ZINC000263872566    0.0700
     29 H29         3.7837    1.6808   58.1992 H       1  ZINC000263872566    0.0600
     30 H30         2.7829    1.3246   56.7709 H       1  ZINC000263872566    0.0700
     31 H31         1.0247    2.6905   60.2571 H       1  ZINC000263872566    0.3800
     32 H32        -0.6904    0.5044   58.3811 H       1  ZINC000263872566    0.1300
     33 H33        -2.7058    1.1552   57.1250 H       1  ZINC000263872566    0.1300
     34 H34        -3.9327    2.8200   55.9932 H       1  ZINC000263872566    0.0800
     35 H35        -3.2259    4.4254   55.6909 H       1  ZINC000263872566    0.0800
     36 H36        -3.0669    2.1038   53.8759 H       1  ZINC000263872566    0.4000
     37 H37        -2.6957    4.8500   50.3252 H       1  ZINC000263872566    0.0800
     38 H38        -1.6307    5.5666   51.5621 H       1  ZINC000263872566    0.0800
     39 H39        -0.3876    4.8182   49.5012 H       1  ZINC000263872566    0.0900
     40 H40         0.1629    4.0024   50.9850 H       1  ZINC000263872566    0.0800
     41 H41        -1.8487    2.8702   48.9875 H       1  ZINC000263872566    0.1100
     42 H42        -1.4534   -0.6610   47.2166 H       1  ZINC000263872566    0.0600
     43 H43        -0.4654   -0.8446   45.7474 H       1  ZINC000263872566    0.0700
     44 H44         0.1495   -1.4292   47.3121 H       1  ZINC000263872566    0.0800
     45 H45        -0.1683    2.7730   46.5735 H       1  ZINC000263872566    0.0700
     46 H46        -0.6510    1.6093   45.3161 H       1  ZINC000263872566    0.0800
     47 H47        -1.6390    1.7929   46.7853 H       1  ZINC000263872566    0.0700
     48 H48         2.2138   -0.0535   47.0148 H       1  ZINC000263872566    0.0800
     49 H49         1.5989    0.5311   45.4501 H       1  ZINC000263872566    0.0700
     50 H50         2.0816    1.6947   46.7075 H       1  ZINC000263872566    0.0600
     51 H51        -1.5796    0.7924   50.3302 H       1  ZINC000263872566    0.0900
     52 H52        -0.5269    1.6727   51.4648 H       1  ZINC000263872566    0.0700
     53 H53        -2.7924    1.6162   52.3756 H       1  ZINC000263872566    0.1000
     54 H54        -3.4529    2.2777   50.8579 H       1  ZINC000263872566    0.0700
     55 H55        -0.7172    4.6712   55.7562 H       1  ZINC000263872566    0.1300
     56 H56         1.2968    4.0223   57.0154 H       1  ZINC000263872566    0.1300
@<TRIPOS>BOND
     1     1     2    1
     2     1    28    1
     3     1    29    1
     4     1    30    1
     5     2     3    1
     6     2     4    1
     7     2     5    1
     8     4    31    1
     9     5    27   ar
    10     5     6   ar
    11     6     7   ar
    12     6    32    1
    13     7     8   ar
    14     7    33    1
    15     8     9    1
    16     8    26   ar
    17     9    10    1
    18     9    34    1
    19     9    35    1
    20    10    11   am
    21    10    36    1
    22    11    12    2
    23    11    13   am
    24    13    25    1
    25    13    14    1
    26    14    15    1
    27    14    37    1
    28    14    38    1
    29    15    16    1
    30    15    39    1
    31    15    40    1
    32    16    17    1
    33    16    24    1
    34    16    41    1
    35    17    18    2
    36    17    19    1
    37    19    20    1
    38    20    21    1
    39    20    22    1
    40    20    23    1
    41    21    42    1
    42    21    43    1
    43    21    44    1
    44    22    45    1
    45    22    46    1
    46    22    47    1
    47    23    48    1
    48    23    49    1
    49    23    50    1
    50    24    25    1
    51    24    51    1
    52    24    52    1
    53    25    53    1
    54    25    54    1
    55    26    27   ar
    56    26    55    1
    57    27    56    1
@<TRIPOS>SUBSTRUCTURE
     1 ZINC000263872566        1 TEMP              0 ****  ****    0 ROOT


##########                                Name:    ZINC000745364361
##########                DOCK_Rotatable_Bonds:                   8
##########                         Heavy_Atoms:                  29
##########                    Molecular_Weight:             398.434
##########                DOCK_Rotatable_Bonds:                   8
##########                       Formal_Charge:          0.00999923
##########                     HBond_Acceptors:                   7
##########                        HBond_Donors:                   1
##########                         Heavy_Atoms:                  29
##########                          Grid_Score:          -33.436535
##########                     Grid_vdw_energy:          -33.026474
##########                      Grid_es_energy:           -0.410060
##########           Internal_energy_repulsive:           13.084894

@<TRIPOS>MOLECULE
ZINC000745364361
 52 54 1 0 0
SMALL
USER_CHARGES


@<TRIPOS>ATOM
      1 C1        -12.6384   -1.3832   52.0222 C.3     1  ZINC000745364361   -0.1700
      2 C2        -11.5440   -2.0749   52.8376 C.3     1  ZINC000745364361    0.0700
      3 H3        -11.2466   -2.9969   52.3382 H       1  ZINC000745364361    0.1100
      4 O4        -12.0502   -2.3839   54.1630 O.3     1  ZINC000745364361   -0.3200
      5 C5        -12.6512   -3.5733   54.3237 C.2     1  ZINC000745364361    0.4700
      6 O6        -12.4243   -4.4741   53.5511 O.2     1  ZINC000745364361   -0.4900
      7 C7        -13.6088   -3.7852   55.4679 C.3     1  ZINC000745364361   -0.0400
      8 H8        -14.5837   -3.3736   55.2069 H       1  ZINC000745364361    0.1200
      9 C9        -13.7459   -5.2832   55.7475 C.3     1  ZINC000745364361   -0.1400
     10 C10       -13.0833   -3.0907   56.6978 C.ar    1  ZINC000745364361   -0.0500
     11 C11       -13.9601   -2.4771   57.5726 C.ar    1  ZINC000745364361   -0.1000
     12 C12       -13.4794   -1.8396   58.7013 C.ar    1  ZINC000745364361   -0.0900
     13 C13       -12.1216   -1.8152   58.9563 C.ar    1  ZINC000745364361   -0.1500
     14 C14       -11.2422   -2.4301   58.0808 C.ar    1  ZINC000745364361    0.1000
     15 F15        -9.9144   -2.4069   58.3291 F       1  ZINC000745364361   -0.1400
     16 C16       -11.7251   -3.0725   56.9537 C.ar    1  ZINC000745364361   -0.1400
     17 C17       -10.3520   -1.1605   52.9558 C.2     1  ZINC000745364361    0.5200
     18 O18       -10.1737   -0.5248   53.9734 O.2     1  ZINC000745364361   -0.5000
     19 N19        -9.4840   -1.0489   51.9308 N.am    1  ZINC000745364361   -0.6700
     20 C20        -8.3760   -0.1990   52.0407 C.ar    1  ZINC000745364361    0.1200
     21 C21        -8.5540    1.1783   52.0328 C.ar    1  ZINC000745364361   -0.1100
     22 C22        -7.4621    2.0159   52.1411 C.ar    1  ZINC000745364361   -0.1400
     23 C23        -6.1857    1.4814   52.2582 C.ar    1  ZINC000745364361    0.1500
     24 N24        -5.0778    2.3313   52.3676 N.am    1  ZINC000745364361   -0.5600
     25 C25        -5.0298    3.5235   53.2222 C.3     1  ZINC000745364361    0.0900
     26 C26        -3.5313    3.8726   53.3590 C.3     1  ZINC000745364361   -0.1300
     27 C27        -2.9447    3.2558   52.0681 C.3     1  ZINC000745364361   -0.1500
     28 C28        -3.9197    2.1566   51.7078 C.2     1  ZINC000745364361    0.5200
     29 O29        -3.6923    1.2533   50.9310 O.2     1  ZINC000745364361   -0.5100
     30 C30        -6.0079    0.1041   52.2675 C.ar    1  ZINC000745364361   -0.1400
     31 C31        -7.1003   -0.7335   52.1631 C.ar    1  ZINC000745364361   -0.0900
     32 H32       -13.5006   -2.0446   51.9367 H       1  ZINC000745364361    0.0800
     33 H33       -12.9359   -0.4612   52.5217 H       1  ZINC000745364361    0.0800
     34 H34       -12.2584   -1.1513   51.0273 H       1  ZINC000745364361    0.0800
     35 H35       -12.7709   -5.6947   56.0086 H       1  ZINC000745364361    0.0700
     36 H36       -14.4384   -5.4364   56.5751 H       1  ZINC000745364361    0.0800
     37 H37       -14.1259   -5.7855   54.8580 H       1  ZINC000745364361    0.0800
     38 H38       -15.0215   -2.4953   57.3739 H       1  ZINC000745364361    0.1300
     39 H39       -14.1655   -1.3601   59.3840 H       1  ZINC000745364361    0.1400
     40 H40       -11.7463   -1.3167   59.8377 H       1  ZINC000745364361    0.1400
     41 H41       -11.0402   -3.5527   56.2705 H       1  ZINC000745364361    0.1400
     42 H42        -9.6266   -1.5571   51.1171 H       1  ZINC000745364361    0.4100
     43 H43        -9.5466    1.5941   51.9417 H       1  ZINC000745364361    0.1300
     44 H44        -7.6003    3.0870   52.1343 H       1  ZINC000745364361    0.1600
     45 H45        -5.5674    4.3468   52.7517 H       1  ZINC000745364361    0.0800
     46 H46        -5.4568    3.3037   54.2007 H       1  ZINC000745364361    0.0900
     47 H47        -3.3824    4.9522   53.3781 H       1  ZINC000745364361    0.1000
     48 H48        -3.1012    3.4053   54.2450 H       1  ZINC000745364361    0.0900
     49 H49        -2.8965    4.0030   51.2760 H       1  ZINC000745364361    0.1100
     50 H50        -1.9566    2.8376   52.2600 H       1  ZINC000745364361    0.1100
     51 H51        -5.0154   -0.3117   52.3589 H       1  ZINC000745364361    0.1300
     52 H52        -6.9619   -1.8046   52.1702 H       1  ZINC000745364361    0.1400
@<TRIPOS>BOND
     1     1     2    1
     2     1    32    1
     3     1    33    1
     4     1    34    1
     5     2     3    1
     6     2     4    1
     7     2    17    1
     8     4     5    1
     9     5     6    2
    10     5     7    1
    11     7     8    1
    12     7     9    1
    13     7    10    1
    14     9    35    1
    15     9    36    1
    16     9    37    1
    17    10    16   ar
    18    10    11   ar
    19    11    12   ar
    20    11    38    1
    21    12    13   ar
    22    12    39    1
    23    13    14   ar
    24    13    40    1
    25    14    15    1
    26    14    16   ar
    27    16    41    1
    28    17    18    2
    29    17    19   am
    30    19    20    1
    31    19    42    1
    32    20    31   ar
    33    20    21   ar
    34    21    22   ar
    35    21    43    1
    36    22    23   ar
    37    22    44    1
    38    23    24    1
    39    23    30   ar
    40    24    28   am
    41    24    25    1
    42    25    26    1
    43    25    45    1
    44    25    46    1
    45    26    27    1
    46    26    47    1
    47    26    48    1
    48    27    28    1
    49    27    49    1
    50    27    50    1
    51    28    29    2
    52    30    31   ar
    53    30    51    1
    54    31    52    1
@<TRIPOS>SUBSTRUCTURE
     1 ZINC000745364361        1 TEMP              0 ****  ****    0 ROOT


##########                                Name:    ZINC000426037318
##########                DOCK_Rotatable_Bonds:                   7
##########                         Heavy_Atoms:                  28
##########                    Molecular_Weight:             421.904
##########                DOCK_Rotatable_Bonds:                   7
##########                       Formal_Charge:         -0.00999981
##########                     HBond_Acceptors:                   9
##########                        HBond_Donors:                   1
##########                         Heavy_Atoms:                  28
##########                          Grid_Score:          -33.395004
##########                     Grid_vdw_energy:          -32.382835
##########                      Grid_es_energy:           -1.012170
##########           Internal_energy_repulsive:           21.454044

@<TRIPOS>MOLECULE
ZINC000426037318
 48 50 1 0 0
SMALL
USER_CHARGES


@<TRIPOS>ATOM
      1 C1         -1.6214    2.4934   49.3371 C.3     1  ZINC000426037318    0.0300
      2 O2         -2.6020    1.8180   50.1272 O.3     1  ZINC000426037318   -0.3800
      3 C3         -2.7952    2.3859   51.4242 C.3     1  ZINC000426037318    0.1300
      4 C4         -4.1473    1.9823   51.9531 C.ar    1  ZINC000426037318    0.3900
      5 N5         -4.6842    2.6836   52.9353 N.ar    1  ZINC000426037318   -0.5700
      6 C6         -5.8681    2.3721   53.4353 C.ar    1  ZINC000426037318    0.4400
      7 O7         -6.4028    3.1025   54.4413 O.3     1  ZINC000426037318   -0.2800
      8 C8         -5.5925    4.1449   54.9880 C.3     1  ZINC000426037318    0.0300
      9 C9         -6.5705    1.2589   52.8997 C.ar    1  ZINC000426037318   -0.2000
     10 C10        -7.8191    0.7309   53.2481 C.2     1  ZINC000426037318    0.0500
     11 C11        -8.6679    1.3275   54.3411 C.3     1  ZINC000426037318   -0.1200
     12 C12        -8.2086   -0.3395   52.5450 C.2     1  ZINC000426037318   -0.2700
     13 C13        -9.4777   -1.0511   52.7418 C.2     1  ZINC000426037318    0.6000
     14 O14        -9.4943   -2.2674   52.7758 O.2     1  ZINC000426037318   -0.5000
     15 N15       -10.6242   -0.3572   52.8848 N.am    1  ZINC000426037318   -0.6600
     16 C16       -11.8350   -1.0361   53.0725 C.ar    1  ZINC000426037318    0.1200
     17 C17       -12.0022   -1.8667   54.1719 C.ar    1  ZINC000426037318   -0.0700
     18 C18       -13.1967   -2.5355   54.3567 C.ar    1  ZINC000426037318   -0.0900
     19 C19       -13.3781   -3.4369   55.5508 C.3     1  ZINC000426037318   -0.1100
     20 C20       -14.2292   -2.3777   53.4442 C.ar    1  ZINC000426037318    0.1300
     21 O21       -15.4045   -3.0363   53.6275 O.3     1  ZINC000426037318   -0.3100
     22 C22       -16.4291   -2.8178   52.6556 C.3     1  ZINC000426037318    0.0200
     23 C23       -14.0637   -1.5479   52.3447 C.ar    1  ZINC000426037318   -0.1800
     24 C24       -12.8718   -0.8740   52.1610 C.ar    1  ZINC000426037318   -0.0300
     25 Cl25      -12.6645    0.1649   50.7856 Cl      1  ZINC000426037318   -0.0600
     26 S26        -6.9940   -0.7752   51.3550 S.3     1  ZINC000426037318    0.2200
     27 C27        -5.9538    0.5501   51.8585 C.ar    1  ZINC000426037318    0.1300
     28 N28        -4.7552    0.9481   51.4187 N.ar    1  ZINC000426037318   -0.5000
     29 H29        -1.5341    2.0017   48.3682 H       1  ZINC000426037318    0.0900
     30 H30        -1.9231    3.5307   49.1923 H       1  ZINC000426037318    0.0500
     31 H31        -0.6591    2.4629   49.8482 H       1  ZINC000426037318    0.0500
     32 H32        -2.0186    2.0247   52.0984 H       1  ZINC000426037318    0.0900
     33 H33        -2.7411    3.4725   51.3567 H       1  ZINC000426037318    0.0800
     34 H34        -5.3455    4.8616   54.2049 H       1  ZINC000426037318    0.0700
     35 H35        -6.1390    4.6504   55.7840 H       1  ZINC000426037318    0.1100
     36 H36        -4.6747    3.7176   55.3920 H       1  ZINC000426037318    0.0700
     37 H37        -9.3248    2.0871   53.9172 H       1  ZINC000426037318    0.0900
     38 H38        -9.2688    0.5443   54.8030 H       1  ZINC000426037318    0.1000
     39 H39        -8.0241    1.7829   55.0935 H       1  ZINC000426037318    0.0800
     40 H40       -10.6109    0.6124   52.8578 H       1  ZINC000426037318    0.4100
     41 H41       -11.1985   -1.9903   54.8826 H       1  ZINC000426037318    0.1600
     42 H42       -13.7821   -2.8606   56.3830 H       1  ZINC000426037318    0.0700
     43 H43       -14.0683   -4.2415   55.2970 H       1  ZINC000426037318    0.0700
     44 H44       -12.4151   -3.8607   55.8358 H       1  ZINC000426037318    0.0700
     45 H45       -16.6874   -1.7591   52.6317 H       1  ZINC000426037318    0.0600
     46 H46       -16.0704   -3.1267   51.6738 H       1  ZINC000426037318    0.0600
     47 H47       -17.3112   -3.4011   52.9201 H       1  ZINC000426037318    0.1000
     48 H48       -14.8682   -1.4255   51.6346 H       1  ZINC000426037318    0.1500
@<TRIPOS>BOND
     1     1     2    1
     2     1    29    1
     3     1    30    1
     4     1    31    1
     5     2     3    1
     6     3     4    1
     7     3    32    1
     8     3    33    1
     9     4    28   ar
    10     4     5   ar
    11     5     6   ar
    12     6     7    1
    13     6     9   ar
    14     7     8    1
    15     8    34    1
    16     8    35    1
    17     8    36    1
    18     9    27   ar
    19     9    10    1
    20    10    11    1
    21    10    12    2
    22    11    37    1
    23    11    38    1
    24    11    39    1
    25    12    13    1
    26    12    26    1
    27    13    14    2
    28    13    15   am
    29    15    16    1
    30    15    40    1
    31    16    24   ar
    32    16    17   ar
    33    17    18   ar
    34    17    41    1
    35    18    19    1
    36    18    20   ar
    37    19    42    1
    38    19    43    1
    39    19    44    1
    40    20    21    1
    41    20    23   ar
    42    21    22    1
    43    22    45    1
    44    22    46    1
    45    22    47    1
    46    23    24   ar
    47    23    48    1
    48    24    25    1
    49    26    27    1
    50    27    28   ar
@<TRIPOS>SUBSTRUCTURE
     1 ZINC000426037318        1 TEMP              0 ****  ****    0 ROOT


##########                                Name:    ZINC000512239524
##########                DOCK_Rotatable_Bonds:                   9
##########                         Heavy_Atoms:                  31
##########                    Molecular_Weight:             424.518
##########                DOCK_Rotatable_Bonds:                   9
##########                       Formal_Charge:          0.00999919
##########                     HBond_Acceptors:                   7
##########                        HBond_Donors:                   1
##########                         Heavy_Atoms:                  31
##########                          Grid_Score:          -33.355614
##########                     Grid_vdw_energy:          -30.360731
##########                      Grid_es_energy:           -2.994883
##########           Internal_energy_repulsive:           32.786976

@<TRIPOS>MOLECULE
ZINC000512239524
 60 63 1 0 0
SMALL
USER_CHARGES


@<TRIPOS>ATOM
      1 C1         -2.1267    5.3787   54.4648 C.3     1  ZINC000512239524   -0.1600
      2 C2         -1.2912    4.1430   54.1242 C.3     1  ZINC000512239524    0.2000
      3 H3         -0.3219    4.4555   53.7361 H       1  ZINC000512239524    0.1100
      4 N4         -1.0969    3.3369   55.3319 N.am    1  ZINC000512239524   -0.7400
      5 C5          0.0399    3.4560   56.0460 C.2     1  ZINC000512239524    0.7100
      6 O6          0.9043    4.2325   55.6877 O.2     1  ZINC000512239524   -0.5800
      7 N7          0.2187    2.7144   57.1570 N.am    1  ZINC000512239524   -0.6300
      8 C8          1.4500    2.8374   57.9491 C.3     1  ZINC000512239524    0.1300
      9 C9          1.0726    3.1261   59.4056 C.3     1  ZINC000512239524   -0.1100
     10 C10         0.1107    2.0447   59.9030 C.3     1  ZINC000512239524   -0.1000
     11 C11        -0.2361    2.3065   61.3459 C.2     1  ZINC000512239524    0.5300
     12 O12        -0.2103    3.4387   61.7801 O.2     1  ZINC000512239524   -0.5300
     13 N13        -0.5751    1.2825   62.1541 N.am    1  ZINC000512239524   -0.5800
     14 C14        -0.6046   -0.0853   61.6301 C.3     1  ZINC000512239524    0.1500
     15 C15         0.6961   -0.7749   61.9523 C.ar    1  ZINC000512239524   -0.1100
     16 C16         1.8536   -0.0334   62.0987 C.ar    1  ZINC000512239524   -0.0900
     17 C17         3.0467   -0.6659   62.3942 C.ar    1  ZINC000512239524   -0.1200
     18 C18         3.0823   -2.0396   62.5437 C.ar    1  ZINC000512239524   -0.1100
     19 C19         1.9247   -2.7809   62.3981 C.ar    1  ZINC000512239524   -0.1200
     20 C20         0.7307   -2.1481   62.1069 C.ar    1  ZINC000512239524   -0.1100
     21 C21        -0.9139    1.5372   63.5564 C.3     1  ZINC000512239524    0.0700
     22 C22        -0.1600    0.7388   64.6217 C.3     1  ZINC000512239524   -0.1900
     23 C23         0.1412    2.2258   64.4243 C.3     1  ZINC000512239524   -0.2000
     24 C24        -1.1660    2.0680   59.0594 C.3     1  ZINC000512239524   -0.1400
     25 C25        -0.8166    1.7718   57.6025 C.3     1  ZINC000512239524    0.1100
     26 C26        -2.0086    3.3231   53.0830 C.ar    1  ZINC000512239524   -0.0800
     27 C27        -3.2780    2.8223   53.3249 C.ar    1  ZINC000512239524   -0.1400
     28 C28        -3.9056    2.0746   52.3462 C.ar    1  ZINC000512239524    0.1000
     29 N29        -3.3114    1.8354   51.1937 N.ar    1  ZINC000512239524   -0.4600
     30 C30        -2.1044    2.2948   50.9269 C.ar    1  ZINC000512239524    0.0800
     31 C31        -1.4160    3.0559   51.8557 C.ar    1  ZINC000512239524    0.0600
     32 F32        -0.1797    3.5237   51.5762 F       1  ZINC000512239524   -0.1200
     33 H33        -1.6079    5.9717   55.2179 H       1  ZINC000512239524    0.0700
     34 H34        -2.2713    5.9785   53.5662 H       1  ZINC000512239524    0.0700
     35 H35        -3.0961    5.0662   54.8529 H       1  ZINC000512239524    0.0600
     36 H36        -1.7865    2.7173   55.6177 H       1  ZINC000512239524    0.3900
     37 H37         2.0137    1.9061   57.8954 H       1  ZINC000512239524    0.0700
     38 H38         2.0550    3.6561   57.5593 H       1  ZINC000512239524    0.1000
     39 H39         1.9718    3.1245   60.0215 H       1  ZINC000512239524    0.0900
     40 H40         0.5889    4.1008   59.4696 H       1  ZINC000512239524    0.0800
     41 H41         0.5859    1.0677   59.8152 H       1  ZINC000512239524    0.1000
     42 H42        -1.4288   -0.6321   62.0883 H       1  ZINC000512239524    0.0900
     43 H43        -0.7432   -0.0575   60.5494 H       1  ZINC000512239524    0.1000
     44 H44         1.8258    1.0399   61.9819 H       1  ZINC000512239524    0.1300
     45 H45         3.9511   -0.0867   62.5079 H       1  ZINC000512239524    0.1200
     46 H46         4.0147   -2.5338   62.7739 H       1  ZINC000512239524    0.1200
     47 H47         1.9525   -3.8543   62.5147 H       1  ZINC000512239524    0.1200
     48 H48        -0.1738   -2.7273   61.9932 H       1  ZINC000512239524    0.1200
     49 H49        -1.9596    1.7754   63.7516 H       1  ZINC000512239524    0.1300
     50 H50        -0.7096    0.4513   65.5180 H       1  ZINC000512239524    0.1100
     51 H51         0.5881    0.0239   64.2792 H       1  ZINC000512239524    0.1000
     52 H52         1.0876    2.4891   63.9520 H       1  ZINC000512239524    0.1100
     53 H53        -0.2101    2.9166   65.1908 H       1  ZINC000512239524    0.1000
     54 H54        -1.8602    1.3133   59.4291 H       1  ZINC000512239524    0.0900
     55 H55        -1.6287    3.0527   59.1268 H       1  ZINC000512239524    0.0700
     56 H56        -1.7063    1.8847   56.9831 H       1  ZINC000512239524    0.0800
     57 H57        -0.4365    0.7537   57.5176 H       1  ZINC000512239524    0.0800
     58 H58        -3.7708    3.0136   54.2668 H       1  ZINC000512239524    0.1400
     59 H59        -4.8949    1.6812   52.5278 H       1  ZINC000512239524    0.1700
     60 H60        -1.6496    2.0779   49.9717 H       1  ZINC000512239524    0.1700
@<TRIPOS>BOND
     1     1     2    1
     2     1    33    1
     3     1    34    1
     4     1    35    1
     5     2     3    1
     6     2     4    1
     7     2    26    1
     8     4     5   am
     9     4    36    1
    10     5     6    2
    11     5     7   am
    12     7    25    1
    13     7     8    1
    14     8     9    1
    15     8    37    1
    16     8    38    1
    17     9    10    1
    18     9    39    1
    19     9    40    1
    20    10    11    1
    21    10    24    1
    22    10    41    1
    23    11    12    2
    24    11    13   am
    25    13    14    1
    26    13    21    1
    27    14    15    1
    28    14    42    1
    29    14    43    1
    30    15    20   ar
    31    15    16   ar
    32    16    17   ar
    33    16    44    1
    34    17    18   ar
    35    17    45    1
    36    18    19   ar
    37    18    46    1
    38    19    20   ar
    39    19    47    1
    40    20    48    1
    41    21    23    1
    42    21    22    1
    43    21    49    1
    44    22    23    1
    45    22    50    1
    46    22    51    1
    47    23    52    1
    48    23    53    1
    49    24    25    1
    50    24    54    1
    51    24    55    1
    52    25    56    1
    53    25    57    1
    54    26    31   ar
    55    26    27   ar
    56    27    28   ar
    57    27    58    1
    58    28    29   ar
    59    28    59    1
    60    29    30   ar
    61    30    31   ar
    62    30    60    1
    63    31    32    1
@<TRIPOS>SUBSTRUCTURE
     1 ZINC000512239524        1 TEMP              0 ****  ****    0 ROOT


##########                                Name:    ZINC001105194920
##########                DOCK_Rotatable_Bonds:                   8
##########                         Heavy_Atoms:                  25
##########                    Molecular_Weight:             346.392
##########                DOCK_Rotatable_Bonds:                   8
##########                       Formal_Charge:          -0.0100007
##########                     HBond_Acceptors:                  10
##########                        HBond_Donors:                   3
##########                         Heavy_Atoms:                  25
##########                          Grid_Score:          -33.345139
##########                     Grid_vdw_energy:          -32.514324
##########                      Grid_es_energy:           -0.830813
##########           Internal_energy_repulsive:            8.169369

@<TRIPOS>MOLECULE
ZINC001105194920
 47 49 1 0 0
SMALL
USER_CHARGES


@<TRIPOS>ATOM
      1 C1        -11.1538   -1.6853   52.4129 C.3     1  ZINC001105194920    0.0300
      2 O2        -10.4778   -0.4339   52.5515 O.3     1  ZINC001105194920   -0.3900
      3 C3         -9.0531   -0.5344   52.5034 C.3     1  ZINC001105194920    0.0700
      4 C4         -8.4390    0.8617   52.6234 C.3     1  ZINC001105194920    0.0900
      5 H5         -8.8304    1.5001   51.8313 H       1  ZINC001105194920    0.0900
      6 C6         -8.7969    1.4610   53.9850 C.3     1  ZINC001105194920   -0.1800
      7 N7         -6.9784    0.7667   52.4989 N.3     1  ZINC001105194920   -0.6800
      8 C8         -6.3806    2.0920   52.2884 C.3     1  ZINC001105194920    0.1400
      9 C9         -4.9093    1.9394   52.0004 C.2     1  ZINC001105194920   -0.0200
     10 C10        -3.9225    2.7975   52.3496 C.2     1  ZINC001105194920   -0.0200
     11 N11        -2.7716    2.2570   51.8866 N.pl3   1  ZINC001105194920   -0.2800
     12 C12        -1.4332    2.8352   52.0300 C.3     1  ZINC001105194920    0.1000
     13 C13        -0.3324    2.0364   51.3089 C.3     1  ZINC001105194920    0.1100
     14 N14        -0.6067    2.9016   50.1452 N.am    1  ZINC001105194920   -0.6300
     15 C15        -0.4416    2.7741   48.8136 C.2     1  ZINC001105194920    0.6200
     16 O16        -0.7696    3.6792   48.0712 O.2     1  ZINC001105194920   -0.5400
     17 C17         0.1376    1.5346   48.2563 C.ar    1  ZINC001105194920   -0.0600
     18 N18         1.3540    1.1417   48.6230 N.ar    1  ZINC001105194920   -0.3700
     19 C19         1.8677    0.0358   48.1240 C.ar    1  ZINC001105194920   -0.0200
     20 C20         1.1457   -0.7247   47.2153 C.ar    1  ZINC001105194920    0.1500
     21 N21        -0.0632   -0.3470   46.8415 N.ar    1  ZINC001105194920   -0.5100
     22 C22        -0.5961    0.7621   47.3409 C.ar    1  ZINC001105194920    0.4200
     23 N23        -1.8618    1.1609   46.9525 N.pl3   1  ZINC001105194920   -0.8100
     24 C24        -1.1342    3.9624   51.0251 C.3     1  ZINC001105194920    0.1100
     25 N25        -3.0549    1.1475   51.2989 N.2     1  ZINC001105194920   -0.0800
     26 N26        -4.3209    0.9265   51.3545 N.2     1  ZINC001105194920   -0.2600
     27 H27       -10.8511   -2.3530   53.2194 H       1  ZINC001105194920    0.0400
     28 H28       -12.2307   -1.5236   52.4598 H       1  ZINC001105194920    0.0800
     29 H29       -10.8952   -2.1335   51.4536 H       1  ZINC001105194920    0.0400
     30 H30        -8.7048   -1.1567   53.3278 H       1  ZINC001105194920    0.0600
     31 H31        -8.7523   -0.9835   51.5569 H       1  ZINC001105194920    0.0500
     32 H32        -8.4055    0.8225   54.7771 H       1  ZINC001105194920    0.0700
     33 H33        -8.3594    2.4557   54.0705 H       1  ZINC001105194920    0.0500
     34 H34        -9.8806    1.5315   54.0774 H       1  ZINC001105194920    0.0600
     35 H35        -6.5756    0.3121   53.3047 H       1  ZINC001105194920    0.3500
     36 H36        -6.8674    2.5802   51.4442 H       1  ZINC001105194920    0.0900
     37 H37        -6.5144    2.6974   53.1849 H       1  ZINC001105194920    0.0500
     38 H38        -4.0318    3.7269   52.8888 H       1  ZINC001105194920    0.1800
     39 H39        -1.1887    3.0902   53.0612 H       1  ZINC001105194920    0.1500
     40 H40         0.6613    2.1747   51.7348 H       1  ZINC001105194920    0.1200
     41 H41        -0.5849    0.9885   51.1464 H       1  ZINC001105194920    0.1000
     42 H42         2.8560   -0.2803   48.4236 H       1  ZINC001105194920    0.1800
     43 H43         1.5747   -1.6298   46.8115 H       1  ZINC001105194920    0.1800
     44 H44        -2.3936    0.5918   46.3745 H       1  ZINC001105194920    0.4000
     45 H45        -2.2180    2.0099   47.2581 H       1  ZINC001105194920    0.4300
     46 H46        -2.0268    4.4524   50.6361 H       1  ZINC001105194920    0.1100
     47 H47        -0.3759    4.6666   51.3675 H       1  ZINC001105194920    0.1200
@<TRIPOS>BOND
     1     1     2    1
     2     1    27    1
     3     1    28    1
     4     1    29    1
     5     2     3    1
     6     3     4    1
     7     3    30    1
     8     3    31    1
     9     4     5    1
    10     4     6    1
    11     4     7    1
    12     6    32    1
    13     6    33    1
    14     6    34    1
    15     7     8    1
    16     7    35    1
    17     8     9    1
    18     8    36    1
    19     8    37    1
    20     9    26    1
    21     9    10    2
    22    10    11    1
    23    10    38    1
    24    11    12    1
    25    11    25    1
    26    12    24    1
    27    12    13    1
    28    12    39    1
    29    13    14    1
    30    13    40    1
    31    13    41    1
    32    14    15   am
    33    14    24    1
    34    15    16    2
    35    15    17    1
    36    17    22   ar
    37    17    18   ar
    38    18    19   ar
    39    19    20   ar
    40    19    42    1
    41    20    21   ar
    42    20    43    1
    43    21    22   ar
    44    22    23    1
    45    23    44    1
    46    23    45    1
    47    24    46    1
    48    24    47    1
    49    25    26    2
@<TRIPOS>SUBSTRUCTURE
     1 ZINC001105194920        1 TEMP              0 ****  ****    0 ROOT


##########                                Name:    ZINC000185598309
##########                DOCK_Rotatable_Bonds:                  14
##########                         Heavy_Atoms:                  25
##########                    Molecular_Weight:             347.457
##########                DOCK_Rotatable_Bonds:                  14
##########                       Formal_Charge:               -0.02
##########                     HBond_Acceptors:                   6
##########                        HBond_Donors:                   4
##########                         Heavy_Atoms:                  25
##########                          Grid_Score:          -33.342464
##########                     Grid_vdw_energy:          -33.719860
##########                      Grid_es_energy:            0.377397
##########           Internal_energy_repulsive:            9.960643

@<TRIPOS>MOLECULE
ZINC000185598309
 54 54 1 0 0
SMALL
USER_CHARGES


@<TRIPOS>ATOM
      1 C1        -14.3735   -4.1593   54.9503 C.3     1  ZINC000185598309   -0.1300
      2 C2        -12.9079   -3.9439   54.6731 C.2     1  ZINC000185598309   -0.1600
      3 C3        -12.4726   -2.7547   54.3382 C.2     1  ZINC000185598309   -0.1600
      4 C4        -11.0067   -2.5388   54.0627 C.3     1  ZINC000185598309   -0.0900
      5 C5        -10.8400   -1.4073   53.0464 C.3     1  ZINC000185598309    0.1700
      6 H6        -11.4480   -0.5547   53.3489 H       1  ZINC000185598309    0.1000
      7 C7        -11.2902   -1.8910   51.6664 C.3     1  ZINC000185598309    0.0600
      8 O8        -12.7137   -1.8089   51.5738 O.3     1  ZINC000185598309   -0.5700
      9 N9         -9.4320   -1.0069   52.9881 N.am    1  ZINC000185598309   -0.7300
     10 C10        -9.0979    0.2181   52.5362 C.2     1  ZINC000185598309    0.7000
     11 O11        -9.9653    0.9914   52.1783 O.2     1  ZINC000185598309   -0.5900
     12 N12        -7.8025    0.5859   52.4811 N.am    1  ZINC000185598309   -0.7400
     13 C13        -7.4393    1.9168   51.9881 C.3     1  ZINC000185598309    0.1800
     14 C14        -5.9913    2.1913   52.3033 C.ar    1  ZINC000185598309   -0.0900
     15 C15        -5.6594    3.0141   53.3635 C.ar    1  ZINC000185598309   -0.1100
     16 C16        -4.3317    3.2688   53.6557 C.ar    1  ZINC000185598309   -0.1000
     17 C17        -3.3333    2.7013   52.8889 C.ar    1  ZINC000185598309   -0.1100
     18 C18        -3.6635    1.8739   51.8233 C.ar    1  ZINC000185598309    0.1400
     19 N19        -2.6543    1.2969   51.0447 N.am    1  ZINC000185598309   -0.6800
     20 C20        -1.9770    2.0488   50.1544 C.2     1  ZINC000185598309    0.5200
     21 O21        -2.2424    3.2255   50.0281 O.2     1  ZINC000185598309   -0.5200
     22 C22        -0.8900    1.4273   49.3158 C.3     1  ZINC000185598309   -0.1100
     23 H23        -1.0906    0.3632   49.1914 H       1  ZINC000185598309    0.1000
     24 C24         0.4601    1.6138   50.0110 C.3     1  ZINC000185598309   -0.1500
     25 C25        -0.8548    2.1035   47.9437 C.3     1  ZINC000185598309   -0.1100
     26 C26        -0.3241    1.1163   46.9022 C.3     1  ZINC000185598309   -0.1600
     27 C27        -4.9973    1.6160   51.5358 C.ar    1  ZINC000185598309   -0.1300
     28 H28       -14.5442   -5.2038   55.2114 H       1  ZINC000185598309    0.0600
     29 H29       -14.6840   -3.5224   55.7786 H       1  ZINC000185598309    0.0600
     30 H30       -14.9521   -3.9077   54.0616 H       1  ZINC000185598309    0.0600
     31 H31       -12.2165   -4.7701   54.7504 H       1  ZINC000185598309    0.1100
     32 H32       -13.1642   -1.9288   54.2595 H       1  ZINC000185598309    0.1100
     33 H33       -10.4982   -2.2728   54.9894 H       1  ZINC000185598309    0.0900
     34 H34       -10.5739   -3.4549   53.6608 H       1  ZINC000185598309    0.0800
     35 H35       -10.8392   -1.2643   50.8970 H       1  ZINC000185598309    0.0500
     36 H36       -10.9757   -2.9247   51.5233 H       1  ZINC000185598309    0.0500
     37 H37       -13.1820   -2.3223   52.2464 H       1  ZINC000185598309    0.3800
     38 H38        -8.7402   -1.6234   53.2747 H       1  ZINC000185598309    0.4000
     39 H39        -7.1106   -0.0307   52.7676 H       1  ZINC000185598309    0.4000
     40 H40        -7.5907    1.9587   50.9095 H       1  ZINC000185598309    0.0700
     41 H41        -8.0650    2.6668   52.4722 H       1  ZINC000185598309    0.0800
     42 H42        -6.4383    3.4591   53.9647 H       1  ZINC000185598309    0.1300
     43 H43        -4.0755    3.9126   54.4841 H       1  ZINC000185598309    0.1300
     44 H44        -2.2968    2.9009   53.1173 H       1  ZINC000185598309    0.1300
     45 H45        -2.4420    0.3558   51.1456 H       1  ZINC000185598309    0.4100
     46 H46         0.4351    1.1321   50.9885 H       1  ZINC000185598309    0.0600
     47 H47         1.2464    1.1644   49.4045 H       1  ZINC000185598309    0.0800
     48 H48         0.6607    2.6779   50.1354 H       1  ZINC000185598309    0.0600
     49 H49        -1.8615    2.4170   47.6673 H       1  ZINC000185598309    0.0700
     50 H50        -0.2013    2.9748   47.9848 H       1  ZINC000185598309    0.0700
     51 H51         0.6826    0.8028   47.1786 H       1  ZINC000185598309    0.0600
     52 H52        -0.9777    0.2450   46.8612 H       1  ZINC000185598309    0.0600
     53 H53        -0.2990    1.5981   45.9248 H       1  ZINC000185598309    0.0600
     54 H54        -5.2573    0.9730   50.7079 H       1  ZINC000185598309    0.1300
@<TRIPOS>BOND
     1     1     2    1
     2     1    28    1
     3     1    29    1
     4     1    30    1
     5     2     3    2
     6     2    31    1
     7     3     4    1
     8     3    32    1
     9     4     5    1
    10     4    33    1
    11     4    34    1
    12     5     6    1
    13     5     7    1
    14     5     9    1
    15     7     8    1
    16     7    35    1
    17     7    36    1
    18     8    37    1
    19     9    10   am
    20     9    38    1
    21    10    11    2
    22    10    12   am
    23    12    13    1
    24    12    39    1
    25    13    14    1
    26    13    40    1
    27    13    41    1
    28    14    27   ar
    29    14    15   ar
    30    15    16   ar
    31    15    42    1
    32    16    17   ar
    33    16    43    1
    34    17    18   ar
    35    17    44    1
    36    18    19    1
    37    18    27   ar
    38    19    20   am
    39    19    45    1
    40    20    21    2
    41    20    22    1
    42    22    23    1
    43    22    24    1
    44    22    25    1
    45    24    46    1
    46    24    47    1
    47    24    48    1
    48    25    26    1
    49    25    49    1
    50    25    50    1
    51    26    51    1
    52    26    52    1
    53    26    53    1
    54    27    54    1
@<TRIPOS>SUBSTRUCTURE
     1 ZINC000185598309        1 TEMP              0 ****  ****    0 ROOT


##########                                Name:    ZINC001053792610
##########                DOCK_Rotatable_Bonds:                   5
##########                         Heavy_Atoms:                  25
##########                    Molecular_Weight:             347.374
##########                DOCK_Rotatable_Bonds:                   5
##########                       Formal_Charge:          -0.0400001
##########                     HBond_Acceptors:                   9
##########                        HBond_Donors:                   2
##########                         Heavy_Atoms:                  25
##########                          Grid_Score:          -33.312828
##########                     Grid_vdw_energy:          -32.545727
##########                      Grid_es_energy:           -0.767102
##########           Internal_energy_repulsive:            7.204695

@<TRIPOS>MOLECULE
ZINC001053792610
 46 49 1 0 0
SMALL
USER_CHARGES


@<TRIPOS>ATOM
      1 C1         -7.0853    1.9181   52.2820 C.3     1  ZINC001053792610   -0.1000
      2 C2         -7.8940    0.6546   52.4263 C.ar    1  ZINC001053792610    0.0800
      3 C3         -7.3895   -0.5466   51.9609 C.ar    1  ZINC001053792610    0.0600
      4 N4         -8.0986   -1.6545   52.0874 N.ar    1  ZINC001053792610   -0.4200
      5 C5         -9.2894   -1.6151   52.6584 C.ar    1  ZINC001053792610    0.0800
      6 C6        -10.0979   -2.8786   52.8031 C.3     1  ZINC001053792610    0.0700
      7 N7        -11.4237   -2.5523   53.3452 N.3     1  ZINC001053792610   -0.4500
      8 C8        -11.4690   -2.7774   54.8034 C.3     1  ZINC001053792610   -0.0100
      9 C9        -12.8531   -3.3919   54.6045 C.3     1  ZINC001053792610    0.0800
     10 C10       -12.3521   -3.6899   53.1928 C.3     1  ZINC001053792610   -0.0100
     11 C11       -13.1507   -4.6276   55.4683 C.3     1  ZINC001053792610   -0.1500
     12 C12       -14.2321   -4.0855   56.4450 C.3     1  ZINC001053792610    0.1100
     13 H13       -14.8986   -4.8826   56.7744 H       1  ZINC001053792610    0.1200
     14 N14       -13.6175   -3.4094   57.5901 N.am    1  ZINC001053792610   -0.7100
     15 C15       -14.3360   -3.1912   58.7093 C.2     1  ZINC001053792610    0.5000
     16 O16       -15.4913   -3.5559   58.7689 O.2     1  ZINC001053792610   -0.5100
     17 C17       -13.7043   -2.4941   59.8865 C.3     1  ZINC001053792610    0.0800
     18 H18       -12.6231   -2.6319   59.8767 H       1  ZINC001053792610    0.1300
     19 C19       -14.0588   -0.9944   59.8816 C.3     1  ZINC001053792610    0.0500
     20 O20       -14.7888   -0.8006   61.1275 O.3     1  ZINC001053792610   -0.3200
     21 C21       -14.8710   -1.9643   61.7821 C.2     1  ZINC001053792610    0.6500
     22 O22       -15.4313   -2.0842   62.8536 O.2     1  ZINC001053792610   -0.5100
     23 N23       -14.2768   -2.9885   61.1479 N.am    1  ZINC001053792610   -0.7100
     24 C24       -14.9765   -3.0764   55.5335 C.3     1  ZINC001053792610    0.0400
     25 O25       -13.9557   -2.4959   54.7018 O.3     1  ZINC001053792610   -0.3300
     26 C26        -9.7942   -0.4136   53.1239 C.ar    1  ZINC001053792610    0.0600
     27 N27        -9.0828    0.6932   53.0023 N.ar    1  ZINC001053792610   -0.4400
     28 H28        -6.4535    2.0474   53.1607 H       1  ZINC001053792610    0.0800
     29 H29        -6.4600    1.8496   51.3918 H       1  ZINC001053792610    0.0800
     30 H30        -7.7575    2.7711   52.1891 H       1  ZINC001053792610    0.0800
     31 H31        -6.4162   -0.5786   51.4940 H       1  ZINC001053792610    0.1700
     32 H32       -10.2106   -3.3516   51.8275 H       1  ZINC001053792610    0.1000
     33 H33        -9.5863   -3.5617   53.4811 H       1  ZINC001053792610    0.0600
     34 H34       -10.7237   -3.4899   55.1567 H       1  ZINC001053792610    0.0800
     35 H35       -11.4820   -1.8558   55.3853 H       1  ZINC001053792610    0.0900
     36 H36       -13.1069   -3.5347   52.4218 H       1  ZINC001053792610    0.1000
     37 H37       -11.8491   -4.6527   53.1042 H       1  ZINC001053792610    0.0800
     38 H38       -13.5474   -5.4409   54.8607 H       1  ZINC001053792610    0.1000
     39 H39       -12.2609   -4.9468   56.0108 H       1  ZINC001053792610    0.1000
     40 H40       -12.6932   -3.1188   57.5429 H       1  ZINC001053792610    0.4000
     41 H41       -13.1533   -0.3879   59.8709 H       1  ZINC001053792610    0.1200
     42 H42       -14.6910   -0.7540   59.0268 H       1  ZINC001053792610    0.1100
     43 H43       -14.2354   -3.9030   61.4689 H       1  ZINC001053792610    0.4400
     44 H44       -15.7148   -3.5936   54.9206 H       1  ZINC001053792610    0.0800
     45 H45       -15.4571   -2.3056   56.1360 H       1  ZINC001053792610    0.0900
     46 H46       -10.7676   -0.3813   53.5906 H       1  ZINC001053792610    0.1600
@<TRIPOS>BOND
     1     1     2    1
     2     1    28    1
     3     1    29    1
     4     1    30    1
     5     2    27   ar
     6     2     3   ar
     7     3     4   ar
     8     3    31    1
     9     4     5   ar
    10     5     6    1
    11     5    26   ar
    12     6     7    1
    13     6    32    1
    14     6    33    1
    15     7    10    1
    16     7     8    1
    17     8     9    1
    18     8    34    1
    19     8    35    1
    20     9    25    1
    21     9    10    1
    22     9    11    1
    23    10    36    1
    24    10    37    1
    25    11    12    1
    26    11    38    1
    27    11    39    1
    28    12    13    1
    29    12    14    1
    30    12    24    1
    31    14    15   am
    32    14    40    1
    33    15    16    2
    34    15    17    1
    35    17    18    1
    36    17    23    1
    37    17    19    1
    38    19    20    1
    39    19    41    1
    40    19    42    1
    41    20    21    1
    42    21    22    2
    43    21    23   am
    44    23    43    1
    45    24    25    1
    46    24    44    1
    47    24    45    1
    48    26    27   ar
    49    26    46    1
@<TRIPOS>SUBSTRUCTURE
     1 ZINC001053792610        1 TEMP              0 ****  ****    0 ROOT


##########                                Name:    ZINC001289410668
##########                DOCK_Rotatable_Bonds:                  11
##########                         Heavy_Atoms:                  26
##########                    Molecular_Weight:             362.515
##########                DOCK_Rotatable_Bonds:                  11
##########                       Formal_Charge:          -0.0400008
##########                     HBond_Acceptors:                   6
##########                        HBond_Donors:                   1
##########                         Heavy_Atoms:                  26
##########                          Grid_Score:          -33.310658
##########                     Grid_vdw_energy:          -34.214760
##########                      Grid_es_energy:            0.904104
##########           Internal_energy_repulsive:           15.098160

@<TRIPOS>MOLECULE
ZINC001289410668
 60 61 1 0 0
SMALL
USER_CHARGES


@<TRIPOS>ATOM
      1 C1         -1.2264    2.2252   47.7169 C.3     1  ZINC001289410668   -0.1500
      2 C2          0.0278    1.7397   48.4466 C.3     1  ZINC001289410668   -0.1300
      3 C3         -0.3627    1.1865   49.8186 C.3     1  ZINC001289410668   -0.1200
      4 C4         -0.8831    2.3250   50.6983 C.3     1  ZINC001289410668   -0.1200
      5 C5         -2.3923    2.1689   50.8947 C.3     1  ZINC001289410668   -0.1100
      6 C6         -2.9073    3.2886   51.8013 C.3     1  ZINC001289410668   -0.1400
      7 C7         -4.1563    2.8284   52.5079 C.2     1  ZINC001289410668    0.5100
      8 O8         -4.3293    3.1055   53.6759 O.2     1  ZINC001289410668   -0.5300
      9 N9         -5.0811    2.1089   51.8419 N.am    1  ZINC001289410668   -0.7200
     10 C10        -6.2945    1.6600   52.5292 C.3     1  ZINC001289410668    0.1400
     11 H11        -6.1432    1.6354   53.6084 H       1  ZINC001289410668    0.1100
     12 C12        -6.7526    0.2778   52.0011 C.3     1  ZINC001289410668    0.0800
     13 N13        -8.2006    0.2305   52.2742 N.am    1  ZINC001289410668   -0.6200
     14 C14        -8.9363   -0.8893   52.4203 C.2     1  ZINC001289410668    0.5100
     15 O15        -8.4094   -1.9776   52.3263 O.2     1  ZINC001289410668   -0.5100
     16 C16       -10.4136   -0.7890   52.7003 C.3     1  ZINC001289410668    0.0900
     17 N17       -10.9196   -2.0960   53.1268 N.pl3   1  ZINC001289410668   -0.4500
     18 C18       -11.1319   -3.1856   52.3259 C.2     1  ZINC001289410668   -0.0500
     19 C19       -11.5973   -4.1684   53.1204 C.2     1  ZINC001289410668   -0.0200
     20 N20       -11.6672   -3.6919   54.3722 N.2     1  ZINC001289410668   -0.4800
     21 C21       -11.2580   -2.4528   54.3846 C.2     1  ZINC001289410668    0.2300
     22 C22       -11.1843   -1.5642   55.5995 C.3     1  ZINC001289410668   -0.0100
     23 C23       -12.4983   -0.7945   55.7488 C.3     1  ZINC001289410668   -0.1400
     24 C24       -10.9511   -2.4215   56.8450 C.3     1  ZINC001289410668   -0.1400
     25 C25        -8.7091    1.6073   52.3615 C.3     1  ZINC001289410668    0.1100
     26 C26        -7.5069    2.5541   52.1579 C.3     1  ZINC001289410668   -0.1100
     27 H27        -7.4427    2.8779   51.1190 H       1  ZINC001289410668    0.0900
     28 C28        -7.6035    3.7605   53.0938 C.3     1  ZINC001289410668   -0.1400
     29 H29        -0.9483    2.6195   46.7394 H       1  ZINC001289410668    0.0500
     30 H30        -1.9179    1.3925   47.5895 H       1  ZINC001289410668    0.0500
     31 H31        -1.7063    3.0098   48.3019 H       1  ZINC001289410668    0.0500
     32 H32         0.5077    0.9552   47.8616 H       1  ZINC001289410668    0.0600
     33 H33         0.7193    2.5726   48.5740 H       1  ZINC001289410668    0.0600
     34 H34        -1.1425    0.4344   49.6987 H       1  ZINC001289410668    0.0600
     35 H35         0.5098    0.7333   50.2894 H       1  ZINC001289410668    0.0600
     36 H36        -0.3853    2.2919   51.6675 H       1  ZINC001289410668    0.0600
     37 H37        -0.6763    3.2804   50.2161 H       1  ZINC001289410668    0.0600
     38 H38        -2.8922    2.2255   49.9277 H       1  ZINC001289410668    0.0700
     39 H39        -2.6009    1.2034   51.3554 H       1  ZINC001289410668    0.0700
     40 H40        -2.1442    3.5391   52.5383 H       1  ZINC001289410668    0.1000
     41 H41        -3.1337    4.1685   51.1992 H       1  ZINC001289410668    0.1000
     42 H42        -4.9432    1.8883   50.9074 H       1  ZINC001289410668    0.4000
     43 H43        -6.5659    0.2000   50.9300 H       1  ZINC001289410668    0.0800
     44 H44        -6.2395   -0.5217   52.5356 H       1  ZINC001289410668    0.0800
     45 H45       -10.5848   -0.0577   53.4903 H       1  ZINC001289410668    0.1200
     46 H46       -10.9344   -0.4754   51.7956 H       1  ZINC001289410668    0.1200
     47 H47       -10.9598   -3.2454   51.2614 H       1  ZINC001289410668    0.1700
     48 H48       -11.8670   -5.1654   52.8048 H       1  ZINC001289410668    0.1700
     49 H49       -10.3613   -0.8589   55.4844 H       1  ZINC001289410668    0.0700
     50 H50       -13.3213   -1.4998   55.8639 H       1  ZINC001289410668    0.0700
     51 H51       -12.4450   -0.1518   56.6275 H       1  ZINC001289410668    0.0600
     52 H52       -12.6644   -0.1838   54.8615 H       1  ZINC001289410668    0.0500
     53 H53       -11.7742   -3.1268   56.9601 H       1  ZINC001289410668    0.0700
     54 H54       -10.0150   -2.9698   56.7386 H       1  ZINC001289410668    0.0600
     55 H55       -10.8978   -1.7789   57.7238 H       1  ZINC001289410668    0.0600
     56 H56        -9.4521    1.7781   51.5826 H       1  ZINC001289410668    0.0800
     57 H57        -9.1520    1.7773   53.3428 H       1  ZINC001289410668    0.0800
     58 H58        -7.6365    3.4166   54.1276 H       1  ZINC001289410668    0.0600
     59 H59        -6.7332    4.4012   52.9517 H       1  ZINC001289410668    0.0600
     60 H60        -8.5095    4.3232   52.8690 H       1  ZINC001289410668    0.0700
@<TRIPOS>BOND
     1     1     2    1
     2     1    29    1
     3     1    30    1
     4     1    31    1
     5     2     3    1
     6     2    32    1
     7     2    33    1
     8     3     4    1
     9     3    34    1
    10     3    35    1
    11     4     5    1
    12     4    36    1
    13     4    37    1
    14     5     6    1
    15     5    38    1
    16     5    39    1
    17     6     7    1
    18     6    40    1
    19     6    41    1
    20     7     8    2
    21     7     9   am
    22     9    10    1
    23     9    42    1
    24    10    11    1
    25    10    26    1
    26    10    12    1
    27    12    13    1
    28    12    43    1
    29    12    44    1
    30    13    14   am
    31    13    25    1
    32    14    15    2
    33    14    16    1
    34    16    17    1
    35    16    45    1
    36    16    46    1
    37    17    21    1
    38    17    18    1
    39    18    19    2
    40    18    47    1
    41    19    20    1
    42    19    48    1
    43    20    21    2
    44    21    22    1
    45    22    23    1
    46    22    24    1
    47    22    49    1
    48    23    50    1
    49    23    51    1
    50    23    52    1
    51    24    53    1
    52    24    54    1
    53    24    55    1
    54    25    26    1
    55    25    56    1
    56    25    57    1
    57    26    27    1
    58    26    28    1
    59    28    58    1
    60    28    59    1
    61    28    60    1
@<TRIPOS>SUBSTRUCTURE
     1 ZINC001289410668        1 TEMP              0 ****  ****    0 ROOT


##########                                Name:    ZINC000433961694
##########                DOCK_Rotatable_Bonds:                   7
##########                         Heavy_Atoms:                  29
##########                    Molecular_Weight:             413.472
##########                DOCK_Rotatable_Bonds:                   7
##########                       Formal_Charge:          0.00999992
##########                     HBond_Acceptors:                   8
##########                        HBond_Donors:                   0
##########                         Heavy_Atoms:                  29
##########                          Grid_Score:          -33.234367
##########                     Grid_vdw_energy:          -32.254673
##########                      Grid_es_energy:           -0.979695
##########           Internal_energy_repulsive:           13.431580

@<TRIPOS>MOLECULE
ZINC000433961694
 49 52 1 0 0
SMALL
USER_CHARGES


@<TRIPOS>ATOM
      1 C1        -13.5573   -5.2649   56.1806 C.3     1  ZINC000433961694   -0.1000
      2 C2        -13.3741   -3.9085   56.8112 C.2     1  ZINC000433961694    0.1600
      3 C3        -13.2851   -2.7649   56.0869 C.2     1  ZINC000433961694   -0.3000
      4 C4        -13.3493   -2.6598   54.6252 C.2     1  ZINC000433961694    0.6200
      5 O5        -14.3855   -2.9178   54.0416 O.2     1  ZINC000433961694   -0.5100
      6 N6        -12.2607   -2.2776   53.9287 N.am    1  ZINC000433961694   -0.6100
      7 C7        -12.1858   -2.1309   52.4636 C.3     1  ZINC000433961694    0.1100
      8 C8        -11.0312   -1.1263   52.2241 C.3     1  ZINC000433961694   -0.1300
      9 C9        -10.0278   -1.5343   53.3350 C.3     1  ZINC000433961694    0.0800
     10 H10        -9.4205   -2.3808   53.0142 H       1  ZINC000433961694    0.1000
     11 O11        -9.1988   -0.4286   53.6984 O.3     1  ZINC000433961694   -0.2900
     12 C12        -8.1096   -0.1939   52.9231 C.ar    1  ZINC000433961694    0.1700
     13 C13        -7.1785    0.7798   53.2758 C.ar    1  ZINC000433961694   -0.2600
     14 C14        -6.0846    0.9882   52.4611 C.ar    1  ZINC000433961694    0.1400
     15 N15        -5.9156    0.2787   51.3614 N.ar    1  ZINC000433961694   -0.5100
     16 C16        -6.7755   -0.6524   50.9939 C.ar    1  ZINC000433961694    0.1400
     17 C17        -7.8918   -0.9247   51.7578 C.ar    1  ZINC000433961694   -0.2000
     18 C18       -10.9529   -1.9315   54.5045 C.3     1  ZINC000433961694    0.0600
     19 S19       -13.0791   -1.4284   57.2167 S.3     1  ZINC000433961694    0.2100
     20 C20       -13.1318   -2.5196   58.5316 C.2     1  ZINC000433961694    0.0400
     21 C21       -13.0141   -2.1257   59.9815 C.3     1  ZINC000433961694    0.1400
     22 O22       -13.9538   -2.8735   60.7560 O.3     1  ZINC000433961694   -0.3000
     23 C23       -15.1831   -2.3217   60.9361 C.ar    1  ZINC000433961694    0.1200
     24 C24       -15.3780   -1.3682   61.9245 C.ar    1  ZINC000433961694   -0.1800
     25 C25       -16.6278   -0.8084   62.1064 C.ar    1  ZINC000433961694   -0.1100
     26 C26       -17.6856   -1.1989   61.3031 C.ar    1  ZINC000433961694    0.0600
     27 F27       -18.9074   -0.6509   61.4823 F       1  ZINC000433961694   -0.1400
     28 C28       -17.4924   -2.1502   60.3158 C.ar    1  ZINC000433961694   -0.1100
     29 C29       -16.2423   -2.7076   60.1280 C.ar    1  ZINC000433961694   -0.1200
     30 N30       -13.2925   -3.7313   58.1060 N.2     1  ZINC000433961694   -0.4500
     31 H31       -14.6215   -5.4768   56.0774 H       1  ZINC000433961694    0.0800
     32 H32       -13.0878   -5.2746   55.1969 H       1  ZINC000433961694    0.1000
     33 H33       -13.0950   -6.0243   56.8113 H       1  ZINC000433961694    0.0800
     34 H34       -11.9575   -3.0894   51.9976 H       1  ZINC000433961694    0.0800
     35 H35       -13.1225   -1.7323   52.0739 H       1  ZINC000433961694    0.1000
     36 H36       -10.5948   -1.2615   51.2344 H       1  ZINC000433961694    0.1000
     37 H37       -11.3713   -0.1000   52.3625 H       1  ZINC000433961694    0.1000
     38 H38        -7.3111    1.3641   54.1743 H       1  ZINC000433961694    0.1400
     39 H39        -5.3578    1.7415   52.7267 H       1  ZINC000433961694    0.1600
     40 H40        -6.6011   -1.2112   50.0864 H       1  ZINC000433961694    0.1700
     41 H41        -8.5916   -1.6883   51.4517 H       1  ZINC000433961694    0.1400
     42 H42       -11.0564   -1.0952   55.1958 H       1  ZINC000433961694    0.0900
     43 H43       -10.5420   -2.7967   55.0247 H       1  ZINC000433961694    0.0800
     44 H44       -12.0043   -2.3351   60.3341 H       1  ZINC000433961694    0.0900
     45 H45       -13.2222   -1.0609   60.0868 H       1  ZINC000433961694    0.1000
     46 H46       -14.5532   -1.0640   62.5518 H       1  ZINC000433961694    0.1400
     47 H47       -16.7798   -0.0660   62.8759 H       1  ZINC000433961694    0.1400
     48 H48       -18.3183   -2.4537   59.6897 H       1  ZINC000433961694    0.1500
     49 H49       -16.0918   -3.4495   59.3578 H       1  ZINC000433961694    0.1400
@<TRIPOS>BOND
     1     1     2    1
     2     1    31    1
     3     1    32    1
     4     1    33    1
     5     2    30    1
     6     2     3    2
     7     3     4    1
     8     3    19    1
     9     4     5    2
    10     4     6   am
    11     6    18    1
    12     6     7    1
    13     7     8    1
    14     7    34    1
    15     7    35    1
    16     8     9    1
    17     8    36    1
    18     8    37    1
    19     9    10    1
    20     9    11    1
    21     9    18    1
    22    11    12    1
    23    12    17   ar
    24    12    13   ar
    25    13    14   ar
    26    13    38    1
    27    14    15   ar
    28    14    39    1
    29    15    16   ar
    30    16    17   ar
    31    16    40    1
    32    17    41    1
    33    18    42    1
    34    18    43    1
    35    19    20    1
    36    20    21    1
    37    20    30    2
    38    21    22    1
    39    21    44    1
    40    21    45    1
    41    22    23    1
    42    23    29   ar
    43    23    24   ar
    44    24    25   ar
    45    24    46    1
    46    25    26   ar
    47    25    47    1
    48    26    27    1
    49    26    28   ar
    50    28    29   ar
    51    28    48    1
    52    29    49    1
@<TRIPOS>SUBSTRUCTURE
     1 ZINC000433961694        1 TEMP              0 ****  ****    0 ROOT


##########                                Name:    ZINC000805177769
##########                DOCK_Rotatable_Bonds:                  10
##########                         Heavy_Atoms:                  30
##########                    Molecular_Weight:             417.548
##########                DOCK_Rotatable_Bonds:                  10
##########                       Formal_Charge:           0.0199995
##########                     HBond_Acceptors:                   7
##########                        HBond_Donors:                   1
##########                         Heavy_Atoms:                  30
##########                          Grid_Score:          -33.216114
##########                     Grid_vdw_energy:          -32.213184
##########                      Grid_es_energy:           -1.002931
##########           Internal_energy_repulsive:           36.838970

@<TRIPOS>MOLECULE
ZINC000805177769
 65 66 1 0 0
SMALL
USER_CHARGES


@<TRIPOS>ATOM
      1 C1         -1.2807    2.1635   47.8491 C.3     1  ZINC000805177769   -0.1200
      2 C2         -1.4074    2.6150   49.2813 C.ar    1  ZINC000805177769   -0.0800
      3 C3         -1.3289    1.6915   50.3065 C.ar    1  ZINC000805177769   -0.1200
      4 C4         -1.4452    2.1058   51.6205 C.ar    1  ZINC000805177769   -0.1100
      5 C5         -1.6397    3.4435   51.9087 C.ar    1  ZINC000805177769   -0.0900
      6 C6         -1.7669    3.8949   53.3408 C.3     1  ZINC000805177769   -0.0900
      7 C7         -3.2388    3.8610   53.7574 C.3     1  ZINC000805177769    0.1500
      8 H8         -3.7319    4.7741   53.4240 H       1  ZINC000805177769    0.1000
      9 C9         -3.3354    3.7563   55.2807 C.3     1  ZINC000805177769   -0.1700
     10 N10        -3.8928    2.7016   53.1457 N.am    1  ZINC000805177769   -0.6900
     11 C11        -5.1805    2.7821   52.7558 C.2     1  ZINC000805177769    0.5100
     12 O12        -5.7985    3.8145   52.9130 O.2     1  ZINC000805177769   -0.5100
     13 C13        -5.8471    1.5999   52.1302 C.2     1  ZINC000805177769    0.5200
     14 O14        -5.3077    1.0128   51.2154 O.2     1  ZINC000805177769   -0.5200
     15 N15        -7.0475    1.1858   52.5821 N.am    1  ZINC000805177769   -0.5900
     16 C16        -7.8095    1.8019   53.6780 C.3     1  ZINC000805177769    0.1100
     17 C17        -9.1269    1.0110   53.8213 C.3     1  ZINC000805177769   -0.1500
     18 C18        -9.2870    0.3472   52.4280 C.3     1  ZINC000805177769    0.1500
     19 H19        -9.7328    1.0399   51.7142 H       1  ZINC000805177769    0.1200
     20 N20       -10.0735   -0.8853   52.5209 N.am    1  ZINC000805177769   -0.5900
     21 C21        -9.4547   -2.1748   52.2040 C.3     1  ZINC000805177769    0.0800
     22 C22       -11.3665   -0.8328   52.8975 C.2     1  ZINC000805177769    0.6600
     23 O23       -11.8794    0.2366   53.1618 O.2     1  ZINC000805177769   -0.5600
     24 O24       -12.0898   -1.9653   52.9813 O.3     1  ZINC000805177769   -0.3600
     25 C25       -12.3217   -2.5026   54.3102 C.3     1  ZINC000805177769    0.1400
     26 C26       -12.7670   -1.3762   55.2452 C.3     1  ZINC000805177769   -0.1800
     27 C27       -13.4135   -3.5723   54.2444 C.3     1  ZINC000805177769   -0.1400
     28 C28       -11.0290   -3.1252   54.8413 C.3     1  ZINC000805177769   -0.1800
     29 C29        -7.8167    0.0440   52.0549 C.3     1  ZINC000805177769    0.0900
     30 C30        -1.7168    4.3675   50.8832 C.ar    1  ZINC000805177769   -0.0800
     31 C31        -1.9283    5.8261   51.1975 C.3     1  ZINC000805177769   -0.1200
     32 C32        -1.5967    3.9539   49.5698 C.ar    1  ZINC000805177769   -0.1200
     33 H33        -0.2323    2.1882   47.5518 H       1  ZINC000805177769    0.0700
     34 H34        -1.6615    1.1467   47.7536 H       1  ZINC000805177769    0.0700
     35 H35        -1.8564    2.8291   47.2059 H       1  ZINC000805177769    0.0700
     36 H36        -1.1770    0.6463   50.0813 H       1  ZINC000805177769    0.1200
     37 H37        -1.3846    1.3840   52.4216 H       1  ZINC000805177769    0.1200
     38 H38        -1.1919    3.2290   53.9842 H       1  ZINC000805177769    0.0800
     39 H39        -1.3855    4.9115   53.4366 H       1  ZINC000805177769    0.0900
     40 H40        -2.8423    2.8432   55.6141 H       1  ZINC000805177769    0.0600
     41 H41        -2.8489    4.6190   55.7358 H       1  ZINC000805177769    0.0700
     42 H42        -4.3840    3.7322   55.5774 H       1  ZINC000805177769    0.0600
     43 H43        -3.3992    1.8759   53.0211 H       1  ZINC000805177769    0.4100
     44 H44        -7.2392    1.7430   54.6051 H       1  ZINC000805177769    0.0900
     45 H45        -8.0263    2.8431   53.4393 H       1  ZINC000805177769    0.0900
     46 H46        -9.0397    0.2545   54.6012 H       1  ZINC000805177769    0.0900
     47 H47        -9.9601    1.6833   54.0261 H       1  ZINC000805177769    0.0900
     48 H48        -9.0192   -2.6006   53.1079 H       1  ZINC000805177769    0.0600
     49 H49       -10.2110   -2.8538   51.8104 H       1  ZINC000805177769    0.0800
     50 H50        -8.6733   -2.0293   51.4580 H       1  ZINC000805177769    0.0800
     51 H51       -13.6879   -0.9326   54.8668 H       1  ZINC000805177769    0.0600
     52 H52       -12.9410   -1.7796   56.2427 H       1  ZINC000805177769    0.0700
     53 H53       -11.9891   -0.6141   55.2921 H       1  ZINC000805177769    0.0900
     54 H54       -13.0963   -4.3747   53.5783 H       1  ZINC000805177769    0.0700
     55 H55       -13.5876   -3.9756   55.2419 H       1  ZINC000805177769    0.0800
     56 H56       -14.3345   -3.1287   53.8660 H       1  ZINC000805177769    0.0700
     57 H57       -10.2512   -2.3631   54.8883 H       1  ZINC000805177769    0.0900
     58 H58       -11.2031   -3.5286   55.8388 H       1  ZINC000805177769    0.0700
     59 H59       -10.7118   -3.9276   54.1752 H       1  ZINC000805177769    0.0600
     60 H60        -7.7064   -0.0250   50.9728 H       1  ZINC000805177769    0.0900
     61 H61        -7.4875   -0.8801   52.5303 H       1  ZINC000805177769    0.0800
     62 H62        -0.9619    6.3150   51.3204 H       1  ZINC000805177769    0.0700
     63 H63        -2.4732    6.2986   50.3802 H       1  ZINC000805177769    0.0700
     64 H64        -2.5026    5.9196   52.1191 H       1  ZINC000805177769    0.0700
     65 H65        -1.6570    4.6756   48.7687 H       1  ZINC000805177769    0.1200
@<TRIPOS>BOND
     1     1     2    1
     2     1    33    1
     3     1    34    1
     4     1    35    1
     5     2    32   ar
     6     2     3   ar
     7     3     4   ar
     8     3    36    1
     9     4     5   ar
    10     4    37    1
    11     5     6    1
    12     5    30   ar
    13     6     7    1
    14     6    38    1
    15     6    39    1
    16     7     8    1
    17     7     9    1
    18     7    10    1
    19     9    40    1
    20     9    41    1
    21     9    42    1
    22    10    11   am
    23    10    43    1
    24    11    12    2
    25    11    13    1
    26    13    14    2
    27    13    15   am
    28    15    29    1
    29    15    16    1
    30    16    17    1
    31    16    44    1
    32    16    45    1
    33    17    18    1
    34    17    46    1
    35    17    47    1
    36    18    19    1
    37    18    20    1
    38    18    29    1
    39    20    21    1
    40    20    22   am
    41    21    48    1
    42    21    49    1
    43    21    50    1
    44    22    23    2
    45    22    24    1
    46    24    25    1
    47    25    26    1
    48    25    27    1
    49    25    28    1
    50    26    51    1
    51    26    52    1
    52    26    53    1
    53    27    54    1
    54    27    55    1
    55    27    56    1
    56    28    57    1
    57    28    58    1
    58    28    59    1
    59    29    60    1
    60    29    61    1
    61    30    31    1
    62    30    32   ar
    63    31    62    1
    64    31    63    1
    65    31    64    1
    66    32    65    1
@<TRIPOS>SUBSTRUCTURE
     1 ZINC000805177769        1 TEMP              0 ****  ****    0 ROOT


##########                                Name:    ZINC000859496582
##########                DOCK_Rotatable_Bonds:                  10
##########                         Heavy_Atoms:                  26
##########                    Molecular_Weight:             361.438
##########                DOCK_Rotatable_Bonds:                  10
##########                       Formal_Charge:           0.0100006
##########                     HBond_Acceptors:                   6
##########                        HBond_Donors:                   0
##########                         Heavy_Atoms:                  26
##########                          Grid_Score:          -33.213226
##########                     Grid_vdw_energy:          -33.918922
##########                      Grid_es_energy:            0.705697
##########           Internal_energy_repulsive:           14.384321

@<TRIPOS>MOLECULE
ZINC000859496582
 53 54 1 0 0
SMALL
USER_CHARGES


@<TRIPOS>ATOM
      1 C1        -11.1156   -1.0362   52.0079 C.3     1  ZINC000859496582    0.0300
      2 O2         -9.8466   -1.3905   51.3978 O.3     1  ZINC000859496582   -0.3600
      3 C3         -8.7391   -1.1721   52.1242 C.2     1  ZINC000859496582    0.4600
      4 O4         -8.8233   -0.6569   53.2138 O.2     1  ZINC000859496582   -0.5100
      5 C5         -7.3909   -1.5694   51.5806 C.3     1  ZINC000859496582   -0.1100
      6 C6         -6.3247   -0.6071   52.1079 C.3     1  ZINC000859496582   -0.1100
      7 C7         -6.6563    0.8174   51.6587 C.3     1  ZINC000859496582   -0.1200
      8 C8         -5.4887    1.7450   52.0011 C.3     1  ZINC000859496582    0.0700
      9 O9         -4.2979    1.3042   51.2969 O.3     1  ZINC000859496582   -0.3500
     10 C10        -3.2049    2.0757   51.4059 C.2     1  ZINC000859496582    0.4700
     11 O11        -3.2270    3.0590   52.1077 O.2     1  ZINC000859496582   -0.5000
     12 C12        -1.9501    1.7154   50.6529 C.3     1  ZINC000859496582   -0.1000
     13 H13        -1.8613    0.6308   50.5918 H       1  ZINC000859496582    0.1200
     14 C14        -0.7335    2.2871   51.3844 C.3     1  ZINC000859496582   -0.1100
     15 C15         0.5436    1.8940   50.6385 C.3     1  ZINC000859496582   -0.1300
     16 C16         0.5073    2.4848   49.2255 C.3     1  ZINC000859496582    0.1100
     17 N17        -0.7333    2.0561   48.5654 N.am    1  ZINC000859496582   -0.6100
     18 C18        -0.6967    1.4469   47.3638 C.2     1  ZINC000859496582    0.5700
     19 O19        -1.7301    1.0968   46.8281 O.2     1  ZINC000859496582   -0.5300
     20 C20         0.6005    1.2042   46.6974 C.ar    1  ZINC000859496582   -0.1400
     21 C21         1.1844   -0.0629   46.7401 C.ar    1  ZINC000859496582   -0.0900
     22 C22         2.3948   -0.2827   46.1158 C.ar    1  ZINC000859496582   -0.1200
     23 C23         3.0301    0.7496   45.4486 C.ar    1  ZINC000859496582   -0.0600
     24 C24         4.3523    0.5023   44.7692 C.3     1  ZINC000859496582   -0.1200
     25 C25         2.4565    2.0079   45.4020 C.ar    1  ZINC000859496582   -0.1200
     26 C26         1.2439    2.2397   46.0177 C.ar    1  ZINC000859496582   -0.0600
     27 C27        -2.0151    2.3036   49.2399 C.3     1  ZINC000859496582    0.1100
     28 H28       -11.1227    0.0288   52.2395 H       1  ZINC000859496582    0.0600
     29 H29       -11.9271   -1.2631   51.3164 H       1  ZINC000859496582    0.1000
     30 H30       -11.2498   -1.6086   52.9257 H       1  ZINC000859496582    0.0600
     31 H31        -7.1548   -2.5842   51.9008 H       1  ZINC000859496582    0.1100
     32 H32        -7.4114   -1.5275   50.4915 H       1  ZINC000859496582    0.1100
     33 H33        -6.3039   -0.6491   53.1969 H       1  ZINC000859496582    0.0800
     34 H34        -5.3495   -0.8943   51.7145 H       1  ZINC000859496582    0.0800
     35 H35        -6.8257    0.8287   50.5820 H       1  ZINC000859496582    0.0800
     36 H36        -7.5551    1.1601   52.1716 H       1  ZINC000859496582    0.0800
     37 H37        -5.7332    2.7635   51.6992 H       1  ZINC000859496582    0.0700
     38 H38        -5.3065    1.7182   53.0754 H       1  ZINC000859496582    0.0700
     39 H39        -0.8111    3.3737   51.4241 H       1  ZINC000859496582    0.0800
     40 H40        -0.6991    1.8886   52.3984 H       1  ZINC000859496582    0.0800
     41 H41         1.4110    2.2816   51.1728 H       1  ZINC000859496582    0.0900
     42 H42         0.6093    0.8077   50.5770 H       1  ZINC000859496582    0.0700
     43 H43         0.5331    3.5729   49.2838 H       1  ZINC000859496582    0.0700
     44 H44         1.3660    2.1267   48.6576 H       1  ZINC000859496582    0.1000
     45 H45         0.6899   -0.8693   47.2612 H       1  ZINC000859496582    0.1300
     46 H46         2.8477   -1.2626   46.1482 H       1  ZINC000859496582    0.1300
     47 H47         4.1788    0.1866   43.7405 H       1  ZINC000859496582    0.0800
     48 H48         4.9402    1.4201   44.7734 H       1  ZINC000859496582    0.0700
     49 H49         4.8943   -0.2787   45.3025 H       1  ZINC000859496582    0.0700
     50 H50         2.9573    2.8093   44.8793 H       1  ZINC000859496582    0.1300
     51 H51         0.7971    3.2223   45.9803 H       1  ZINC000859496582    0.1300
     52 H52        -2.8201    1.8262   48.6812 H       1  ZINC000859496582    0.1100
     53 H53        -2.1954    3.3769   49.2997 H       1  ZINC000859496582    0.0800
@<TRIPOS>BOND
     1     1     2    1
     2     1    28    1
     3     1    29    1
     4     1    30    1
     5     2     3    1
     6     3     4    2
     7     3     5    1
     8     5     6    1
     9     5    31    1
    10     5    32    1
    11     6     7    1
    12     6    33    1
    13     6    34    1
    14     7     8    1
    15     7    35    1
    16     7    36    1
    17     8     9    1
    18     8    37    1
    19     8    38    1
    20     9    10    1
    21    10    11    2
    22    10    12    1
    23    12    13    1
    24    12    27    1
    25    12    14    1
    26    14    15    1
    27    14    39    1
    28    14    40    1
    29    15    16    1
    30    15    41    1
    31    15    42    1
    32    16    17    1
    33    16    43    1
    34    16    44    1
    35    17    18   am
    36    17    27    1
    37    18    19    2
    38    18    20    1
    39    20    26   ar
    40    20    21   ar
    41    21    22   ar
    42    21    45    1
    43    22    23   ar
    44    22    46    1
    45    23    24    1
    46    23    25   ar
    47    24    47    1
    48    24    48    1
    49    24    49    1
    50    25    26   ar
    51    25    50    1
    52    26    51    1
    53    27    52    1
    54    27    53    1
@<TRIPOS>SUBSTRUCTURE
     1 ZINC000859496582        1 TEMP              0 ****  ****    0 ROOT


##########                                Name:    ZINC001500042809
##########                DOCK_Rotatable_Bonds:                   9
##########                         Heavy_Atoms:                  24
##########                    Molecular_Weight:              346.45
##########                DOCK_Rotatable_Bonds:                   9
##########                       Formal_Charge:           0.0200001
##########                     HBond_Acceptors:                   6
##########                        HBond_Donors:                   2
##########                         Heavy_Atoms:                  24
##########                          Grid_Score:          -33.188705
##########                     Grid_vdw_energy:          -32.152683
##########                      Grid_es_energy:           -1.036024
##########           Internal_energy_repulsive:           22.385170

@<TRIPOS>MOLECULE
ZINC001500042809
 46 47 1 0 0
SMALL
USER_CHARGES


@<TRIPOS>ATOM
      1 C1        -10.3836   -1.8289   51.7761 C.3     1  ZINC001500042809    0.0200
      2 O2         -9.1030   -2.0315   52.3769 O.3     1  ZINC001500042809   -0.3100
      3 C3         -8.2678   -0.9628   52.4225 C.ar    1  ZINC001500042809    0.1600
      4 C4         -8.6966    0.2280   52.9974 C.ar    1  ZINC001500042809   -0.1600
      5 C5         -7.8523    1.3148   53.0452 C.ar    1  ZINC001500042809   -0.0200
      6 C6         -6.5629    1.2192   52.5153 C.ar    1  ZINC001500042809   -0.1800
      7 C7         -5.6548    2.3818   52.5646 C.2     1  ZINC001500042809    0.5600
      8 O8         -6.0465    3.4407   53.0157 O.2     1  ZINC001500042809   -0.5300
      9 N9         -4.3911    2.2695   52.1095 N.am    1  ZINC001500042809   -0.7300
     10 C10        -3.4891    3.4229   52.1600 C.3     1  ZINC001500042809    0.1300
     11 C11        -2.3524    3.2256   51.1550 C.3     1  ZINC001500042809   -0.1200
     12 H12        -2.7495    3.2822   50.1415 H       1  ZINC001500042809    0.0900
     13 C13        -1.3013    4.3196   51.3528 C.3     1  ZINC001500042809   -0.1500
     14 C14        -1.7094    1.8548   51.3751 C.3     1  ZINC001500042809    0.1300
     15 N15        -0.5686    1.6994   50.4691 N.am    1  ZINC001500042809   -0.7300
     16 C16        -0.7588    1.2292   49.2205 C.2     1  ZINC001500042809    0.5900
     17 O17        -1.8785    0.9351   48.8451 O.2     1  ZINC001500042809   -0.5200
     18 C18         0.3828    1.0721   48.3146 C.2     1  ZINC001500042809   -0.2800
     19 C19         0.3156    0.6274   47.0243 C.2     1  ZINC001500042809   -0.0100
     20 C20        -0.9730    0.2322   46.3502 C.3     1  ZINC001500042809   -0.1100
     21 C21         1.5404    0.5770   46.4020 C.2     1  ZINC001500042809   -0.1500
     22 C22         2.5760    0.9663   47.1549 C.2     1  ZINC001500042809   -0.2200
     23 S23         2.0572    1.4327   48.7119 S.3     1  ZINC001500042809    0.1900
     24 C24        -6.1376    0.0221   51.9336 C.ar    1  ZINC001500042809   -0.0400
     25 C25        -6.9862   -1.0616   51.8939 C.ar    1  ZINC001500042809   -0.2200
     26 H26       -10.9244   -1.0578   52.3248 H       1  ZINC001500042809    0.0600
     27 H27       -10.2535   -1.5144   50.7407 H       1  ZINC001500042809    0.0600
     28 H28       -10.9497   -2.7599   51.8048 H       1  ZINC001500042809    0.1000
     29 H29        -9.6933    0.3010   53.4068 H       1  ZINC001500042809    0.1400
     30 H30        -8.1865    2.2397   53.4915 H       1  ZINC001500042809    0.1400
     31 H31        -4.0789    1.4250   51.7485 H       1  ZINC001500042809    0.4000
     32 H32        -3.0746    3.5162   53.1638 H       1  ZINC001500042809    0.0800
     33 H33        -4.0424    4.3280   51.9097 H       1  ZINC001500042809    0.0800
     34 H34        -1.7594    5.2962   51.1961 H       1  ZINC001500042809    0.0600
     35 H35        -0.9042    4.2630   52.3664 H       1  ZINC001500042809    0.0600
     36 H36        -0.4914    4.1791   50.6369 H       1  ZINC001500042809    0.0600
     37 H37        -1.3674    1.7754   52.4069 H       1  ZINC001500042809    0.0800
     38 H38        -2.4422    1.0733   51.1740 H       1  ZINC001500042809    0.0800
     39 H39         0.3237    1.9351   50.7680 H       1  ZINC001500042809    0.4000
     40 H40        -1.4094    1.1033   45.8613 H       1  ZINC001500042809    0.0800
     41 H41        -0.7725   -0.5393   45.6068 H       1  ZINC001500042809    0.0700
     42 H42        -1.6694   -0.1531   47.0951 H       1  ZINC001500042809    0.0900
     43 H43         1.6582    0.2469   45.3805 H       1  ZINC001500042809    0.1500
     44 H44         3.6026    0.9864   46.8201 H       1  ZINC001500042809    0.1700
     45 H45        -5.1432   -0.0542   51.5189 H       1  ZINC001500042809    0.1300
     46 H46        -6.6570   -1.9882   51.4474 H       1  ZINC001500042809    0.1400
@<TRIPOS>BOND
     1     1     2    1
     2     1    26    1
     3     1    27    1
     4     1    28    1
     5     2     3    1
     6     3    25   ar
     7     3     4   ar
     8     4     5   ar
     9     4    29    1
    10     5     6   ar
    11     5    30    1
    12     6     7    1
    13     6    24   ar
    14     7     8    2
    15     7     9   am
    16     9    10    1
    17     9    31    1
    18    10    11    1
    19    10    32    1
    20    10    33    1
    21    11    12    1
    22    11    13    1
    23    11    14    1
    24    13    34    1
    25    13    35    1
    26    13    36    1
    27    14    15    1
    28    14    37    1
    29    14    38    1
    30    15    16   am
    31    15    39    1
    32    16    17    2
    33    16    18    1
    34    18    23    1
    35    18    19    2
    36    19    20    1
    37    19    21    1
    38    20    40    1
    39    20    41    1
    40    20    42    1
    41    21    22    2
    42    21    43    1
    43    22    23    1
    44    22    44    1
    45    24    25   ar
    46    24    45    1
    47    25    46    1
@<TRIPOS>SUBSTRUCTURE
     1 ZINC001500042809        1 TEMP              0 ****  ****    0 ROOT


##########                                Name:    ZINC000505965769
##########                DOCK_Rotatable_Bonds:                   9
##########                         Heavy_Atoms:                  29
##########                    Molecular_Weight:              419.88
##########                DOCK_Rotatable_Bonds:                   9
##########                       Formal_Charge:               -0.02
##########                     HBond_Acceptors:                   7
##########                        HBond_Donors:                   1
##########                         Heavy_Atoms:                  29
##########                          Grid_Score:          -33.174191
##########                     Grid_vdw_energy:          -33.026241
##########                      Grid_es_energy:           -0.147949
##########           Internal_energy_repulsive:           11.966815

@<TRIPOS>MOLECULE
ZINC000505965769
 52 54 1 0 0
SMALL
USER_CHARGES


@<TRIPOS>ATOM
      1 C1        -12.3571   -3.9514   53.3800 C.3     1  ZINC000505965769    0.0200
      2 O2        -11.3969   -3.4244   54.2979 O.3     1  ZINC000505965769   -0.3100
      3 C3        -10.7616   -2.2816   53.9361 C.ar    1  ZINC000505965769    0.1800
      4 C4         -9.9409   -2.2710   52.8131 C.ar    1  ZINC000505965769   -0.2200
      5 C5         -9.2977   -1.1251   52.4411 C.ar    1  ZINC000505965769   -0.0200
      6 C6         -9.4626    0.0461   53.1909 C.ar    1  ZINC000505965769   -0.2100
      7 C7         -8.7729    1.2789   52.7929 C.2     1  ZINC000505965769    0.3900
      8 O8         -9.4028    2.1993   52.3158 O.2     1  ZINC000505965769   -0.4400
      9 C9         -7.2822    1.4013   52.9768 C.3     1  ZINC000505965769   -0.1500
     10 C10        -6.5989    1.4160   51.6080 C.3     1  ZINC000505965769   -0.1300
     11 C11        -5.1033    1.4196   51.7931 C.2     1  ZINC000505965769    0.5200
     12 O12        -4.4813    0.3808   51.7236 O.2     1  ZINC000505965769   -0.5300
     13 N13        -4.4571    2.5772   52.0357 N.am    1  ZINC000505965769   -0.7200
     14 C14        -3.0035    2.5803   52.2174 C.3     1  ZINC000505965769    0.1900
     15 H15        -2.6921    1.6403   52.6730 H       1  ZINC000505965769    0.1100
     16 C16        -2.3302    2.7367   50.8782 C.ar    1  ZINC000505965769   -0.1000
     17 C17        -2.0665    3.9994   50.3810 C.ar    1  ZINC000505965769   -0.0900
     18 C18        -1.4491    4.1439   49.1530 C.ar    1  ZINC000505965769   -0.1500
     19 C19        -1.0943    3.0236   48.4209 C.ar    1  ZINC000505965769    0.1000
     20 F20        -0.4903    3.1638   47.2206 F       1  ZINC000505965769   -0.1400
     21 C21        -1.3585    1.7594   48.9202 C.ar    1  ZINC000505965769   -0.1500
     22 C22        -1.9716    1.6172   50.1506 C.ar    1  ZINC000505965769   -0.0600
     23 C23        -2.6057    3.7444   53.1271 C.3     1  ZINC000505965769    0.0800
     24 H24        -3.0164    4.6793   52.7458 H       1  ZINC000505965769    0.0700
     25 C25        -3.1004    3.4901   54.5733 C.3     1  ZINC000505965769   -0.1500
     26 C26        -2.0990    4.3571   55.3843 C.3     1  ZINC000505965769   -0.1600
     27 C27        -0.8029    4.2209   54.5566 C.3     1  ZINC000505965769    0.0500
     28 O28        -1.1754    3.8323   53.2278 O.3     1  ZINC000505965769   -0.3700
     29 C29       -10.2898    0.0365   54.3231 C.ar    1  ZINC000505965769    0.0500
     30 Cl30      -10.5016    1.4825   55.2601 Cl      1  ZINC000505965769   -0.0200
     31 C31       -10.9379   -1.1242   54.6859 C.ar    1  ZINC000505965769   -0.1600
     32 H32       -11.8684   -4.1757   52.4318 H       1  ZINC000505965769    0.0600
     33 H33       -12.7896   -4.8638   53.7906 H       1  ZINC000505965769    0.1100
     34 H34       -13.1457   -3.2167   53.2175 H       1  ZINC000505965769    0.0600
     35 H35        -9.8115   -3.1728   52.2332 H       1  ZINC000505965769    0.1400
     36 H36        -8.6612   -1.1223   51.5685 H       1  ZINC000505965769    0.1500
     37 H37        -7.0562    2.3273   53.5056 H       1  ZINC000505965769    0.1100
     38 H38        -6.9168    0.5535   53.5562 H       1  ZINC000505965769    0.1100
     39 H39        -6.8933    0.5300   51.0454 H       1  ZINC000505965769    0.1000
     40 H40        -6.8995    2.3099   51.0613 H       1  ZINC000505965769    0.1000
     41 H41        -4.9546    3.4081   52.0900 H       1  ZINC000505965769    0.4000
     42 H42        -2.3434    4.8731   50.9521 H       1  ZINC000505965769    0.1300
     43 H43        -1.2438    5.1304   48.7644 H       1  ZINC000505965769    0.1400
     44 H44        -1.0824    0.8848   48.3499 H       1  ZINC000505965769    0.1400
     45 H45        -2.1775    0.6313   50.5404 H       1  ZINC000505965769    0.1400
     46 H46        -4.1231    3.8429   54.7065 H       1  ZINC000505965769    0.0700
     47 H47        -3.0126    2.4365   54.8390 H       1  ZINC000505965769    0.1000
     48 H48        -2.4276    5.3957   55.4224 H       1  ZINC000505965769    0.0700
     49 H49        -1.9623    3.9551   56.3881 H       1  ZINC000505965769    0.0800
     50 H50        -0.2804    5.1771   54.5280 H       1  ZINC000505965769    0.0700
     51 H51        -0.1600    3.4599   54.9990 H       1  ZINC000505965769    0.0700
     52 H52       -11.5763   -1.1368   55.5569 H       1  ZINC000505965769    0.1500
@<TRIPOS>BOND
     1     1     2    1
     2     1    32    1
     3     1    33    1
     4     1    34    1
     5     2     3    1
     6     3    31   ar
     7     3     4   ar
     8     4     5   ar
     9     4    35    1
    10     5     6   ar
    11     5    36    1
    12     6     7    1
    13     6    29   ar
    14     7     8    2
    15     7     9    1
    16     9    10    1
    17     9    37    1
    18     9    38    1
    19    10    11    1
    20    10    39    1
    21    10    40    1
    22    11    12    2
    23    11    13   am
    24    13    14    1
    25    13    41    1
    26    14    15    1
    27    14    16    1
    28    14    23    1
    29    16    22   ar
    30    16    17   ar
    31    17    18   ar
    32    17    42    1
    33    18    19   ar
    34    18    43    1
    35    19    20    1
    36    19    21   ar
    37    21    22   ar
    38    21    44    1
    39    22    45    1
    40    23    24    1
    41    23    28    1
    42    23    25    1
    43    25    26    1
    44    25    46    1
    45    25    47    1
    46    26    27    1
    47    26    48    1
    48    26    49    1
    49    27    28    1
    50    27    50    1
    51    27    51    1
    52    29    30    1
    53    29    31   ar
    54    31    52    1
@<TRIPOS>SUBSTRUCTURE
     1 ZINC000505965769        1 TEMP              0 ****  ****    0 ROOT


##########                                Name:    ZINC000929592477
##########                DOCK_Rotatable_Bonds:                   7
##########                         Heavy_Atoms:                  28
##########                    Molecular_Weight:             399.517
##########                DOCK_Rotatable_Bonds:                   7
##########                       Formal_Charge:         -8.9407e-08
##########                     HBond_Acceptors:                   8
##########                        HBond_Donors:                   3
##########                         Heavy_Atoms:                  28
##########                          Grid_Score:          -33.151844
##########                     Grid_vdw_energy:          -32.613426
##########                      Grid_es_energy:           -0.538418
##########           Internal_energy_repulsive:            7.038624

@<TRIPOS>MOLECULE
ZINC000929592477
 53 56 1 0 0
SMALL
USER_CHARGES


@<TRIPOS>ATOM
      1 O1        -10.9350   -0.2709   57.4356 O.2     1  ZINC000929592477   -0.5700
      2 C2        -10.9303   -1.4671   57.2175 C.2     1  ZINC000929592477    0.7100
      3 N3        -10.6594   -2.3327   58.2144 N.am    1  ZINC000929592477   -0.6800
      4 C4        -10.3776   -1.8537   59.5015 C.ar    1  ZINC000929592477    0.1600
      5 C5         -9.0923   -1.4367   59.8209 C.ar    1  ZINC000929592477   -0.1300
      6 C6         -8.8141   -0.9654   61.0882 C.ar    1  ZINC000929592477   -0.0800
      7 C7         -9.8207   -0.9080   62.0442 C.ar    1  ZINC000929592477   -0.1000
      8 S8         -9.4666   -0.3059   63.6618 S.3     1  ZINC000929592477   -0.1100
      9 C9         -8.4381    1.1530   63.3382 C.3     1  ZINC000929592477   -0.0800
     10 C10        -9.2215    2.1934   62.4998 C.3     1  ZINC000929592477   -0.1200
     11 C11        -8.4949    3.5195   62.8351 C.3     1  ZINC000929592477   -0.1200
     12 C12        -8.1548    3.3959   64.3347 C.3     1  ZINC000929592477   -0.1200
     13 C13        -8.1186    1.8911   64.6546 C.3     1  ZINC000929592477   -0.1000
     14 C14       -11.1069   -1.3248   61.7241 C.ar    1  ZINC000929592477   -0.1200
     15 C15       -11.3852   -1.7911   60.4549 C.ar    1  ZINC000929592477   -0.1000
     16 N16       -11.2013   -1.9276   55.9802 N.am    1  ZINC000929592477   -0.7300
     17 C17       -11.4957   -0.9867   54.8966 C.3     1  ZINC000929592477    0.1500
     18 H18       -12.2648   -0.2773   55.2019 H       1  ZINC000929592477    0.1200
     19 C19       -11.9267   -1.7449   53.6133 C.3     1  ZINC000929592477   -0.1400
     20 C20       -10.5552   -2.1244   53.0009 C.3     1  ZINC000929592477    0.1100
     21 N21        -9.6838   -0.9691   53.2819 N.pl3   1  ZINC000929592477   -0.6000
     22 C22        -8.5566   -0.6192   52.5669 C.2     1  ZINC000929592477    0.4600
     23 C23        -7.9090    0.5770   52.8274 C.2     1  ZINC000929592477   -0.4000
     24 C24        -6.7674    0.8947   52.0787 C.2     1  ZINC000929592477    0.5300
     25 O25        -6.1653    1.9383   52.2751 O.2     1  ZINC000929592477   -0.5500
     26 N26        -6.3465    0.0249   51.1368 N.am    1  ZINC000929592477   -0.6400
     27 C27        -7.0163   -1.1257   50.9257 C.2     1  ZINC000929592477    0.4100
     28 N28        -8.0770   -1.4385   51.6179 N.2     1  ZINC000929592477   -0.5700
     29 C29       -10.2159   -0.2472   54.4528 C.3     1  ZINC000929592477    0.1100
     30 H30       -10.6596   -3.2872   58.0414 H       1  ZINC000929592477    0.4100
     31 H31        -8.3099   -1.4815   59.0778 H       1  ZINC000929592477    0.1300
     32 H32        -7.8142   -0.6418   61.3368 H       1  ZINC000929592477    0.1300
     33 H33        -7.5182    0.8648   62.8295 H       1  ZINC000929592477    0.1000
     34 H34        -9.1445    1.9689   61.4359 H       1  ZINC000929592477    0.0700
     35 H35       -10.2649    2.2348   62.8124 H       1  ZINC000929592477    0.0800
     36 H36        -7.5842    3.6156   62.2439 H       1  ZINC000929592477    0.0700
     37 H37        -9.1544    4.3700   62.6624 H       1  ZINC000929592477    0.0700
     38 H38        -7.1813    3.8436   64.5349 H       1  ZINC000929592477    0.0700
     39 H39        -8.9222    3.8865   64.9333 H       1  ZINC000929592477    0.0700
     40 H40        -8.8685    1.6515   65.4084 H       1  ZINC000929592477    0.0700
     41 H41        -7.1277    1.6087   65.0099 H       1  ZINC000929592477    0.0800
     42 H42       -11.8896   -1.2802   62.4668 H       1  ZINC000929592477    0.1300
     43 H43       -12.3850   -2.1148   60.2058 H       1  ZINC000929592477    0.1400
     44 H44       -11.2013   -2.8821   55.8071 H       1  ZINC000929592477    0.4000
     45 H45       -12.5039   -2.6357   53.8610 H       1  ZINC000929592477    0.0900
     46 H46       -12.4865   -1.0923   52.9434 H       1  ZINC000929592477    0.0900
     47 H47       -10.1618   -3.0216   53.4786 H       1  ZINC000929592477    0.0700
     48 H48       -10.6489   -2.2762   51.9256 H       1  ZINC000929592477    0.0800
     49 H49        -8.2751    1.2492   53.5893 H       1  ZINC000929592477    0.1500
     50 H50        -5.5586    0.2287   50.6090 H       1  ZINC000929592477    0.4200
     51 H51        -6.6632   -1.8083   50.1669 H       1  ZINC000929592477    0.2100
     52 H52       -10.4548    0.7801   54.1779 H       1  ZINC000929592477    0.0900
     53 H53        -9.4823   -0.2564   55.2589 H       1  ZINC000929592477    0.0800
@<TRIPOS>BOND
     1     1     2    2
     2     2     3   am
     3     2    16   am
     4     3     4    1
     5     3    30    1
     6     4    15   ar
     7     4     5   ar
     8     5     6   ar
     9     5    31    1
    10     6     7   ar
    11     6    32    1
    12     7     8    1
    13     7    14   ar
    14     8     9    1
    15     9    13    1
    16     9    10    1
    17     9    33    1
    18    10    11    1
    19    10    34    1
    20    10    35    1
    21    11    12    1
    22    11    36    1
    23    11    37    1
    24    12    13    1
    25    12    38    1
    26    12    39    1
    27    13    40    1
    28    13    41    1
    29    14    15   ar
    30    14    42    1
    31    15    43    1
    32    16    17    1
    33    16    44    1
    34    17    18    1
    35    17    29    1
    36    17    19    1
    37    19    20    1
    38    19    45    1
    39    19    46    1
    40    20    21    1
    41    20    47    1
    42    20    48    1
    43    21    22    1
    44    21    29    1
    45    22    28    1
    46    22    23    2
    47    23    24    1
    48    23    49    1
    49    24    25    2
    50    24    26   am
    51    26    27    1
    52    26    50    1
    53    27    28    2
    54    27    51    1
    55    29    52    1
    56    29    53    1
@<TRIPOS>SUBSTRUCTURE
     1 ZINC000929592477        1 TEMP              0 ****  ****    0 ROOT


##########                                Name:    ZINC000426567005
##########                DOCK_Rotatable_Bonds:                   9
##########                         Heavy_Atoms:                  31
##########                    Molecular_Weight:             417.467
##########                DOCK_Rotatable_Bonds:                   9
##########                       Formal_Charge:        -2.23517e-07
##########                     HBond_Acceptors:                   8
##########                        HBond_Donors:                   4
##########                         Heavy_Atoms:                  31
##########                          Grid_Score:          -33.140194
##########                     Grid_vdw_energy:          -33.449047
##########                      Grid_es_energy:            0.308852
##########           Internal_energy_repulsive:            8.411315

@<TRIPOS>MOLECULE
ZINC000426567005
 54 57 1 0 0
SMALL
USER_CHARGES


@<TRIPOS>ATOM
      1 O1        -10.9940   -0.1353   52.1472 O.2     1  ZINC000426567005   -0.4900
      2 C2         -9.8846   -0.5432   52.4235 C.2     1  ZINC000426567005    0.5200
      3 N3         -9.7220   -1.8045   52.8697 N.am    1  ZINC000426567005   -0.6000
      4 C4        -10.8329   -2.6420   53.0203 C.2     1  ZINC000426567005    0.3000
      5 N5        -11.3298   -3.4368   52.1012 N.2     1  ZINC000426567005   -0.3100
      6 N6        -12.4350   -4.1005   52.6490 N.pl3   1  ZINC000426567005   -0.4600
      7 C7        -12.5861   -3.6804   53.9230 C.2     1  ZINC000426567005    0.1100
      8 C8        -13.6515   -4.1356   54.8867 C.3     1  ZINC000426567005   -0.0300
      9 C9        -13.0191   -4.9186   56.0639 C.3     1  ZINC000426567005   -0.1200
     10 C10       -14.0777   -4.7655   57.1841 C.3     1  ZINC000426567005   -0.1300
     11 C11       -14.5970   -3.3223   57.0193 C.3     1  ZINC000426567005   -0.1300
     12 C12       -14.3261   -2.9217   55.5586 C.3     1  ZINC000426567005   -0.1200
     13 C13       -11.6079   -2.7839   54.1831 C.2     1  ZINC000426567005   -0.2600
     14 C14        -8.6996    0.3500   52.2629 C.2     1  ZINC000426567005    0.5200
     15 O15        -8.8295    1.4455   51.7565 O.2     1  ZINC000426567005   -0.4900
     16 N16        -7.4853   -0.0598   52.6801 N.am    1  ZINC000426567005   -0.6400
     17 C17        -6.3797    0.7737   52.5303 C.ar    1  ZINC000426567005    0.1700
     18 C18        -5.2660    0.3297   51.8233 C.ar    1  ZINC000426567005   -0.1300
     19 C19        -4.1716    1.1512   51.6733 C.ar    1  ZINC000426567005   -0.0300
     20 C20        -4.1798    2.4325   52.2316 C.ar    1  ZINC000426567005   -0.1500
     21 C21        -3.0084    3.3159   52.0724 C.2     1  ZINC000426567005    0.5600
     22 O22        -3.1654    4.5117   51.9180 O.2     1  ZINC000426567005   -0.5100
     23 N23        -1.7647    2.7972   52.0981 N.am    1  ZINC000426567005   -0.6700
     24 C24        -0.6547    3.6344   51.9473 C.ar    1  ZINC000426567005    0.1400
     25 C25         0.2005    3.8560   53.0189 C.ar    1  ZINC000426567005   -0.1500
     26 C26         1.2963    4.6829   52.8665 C.ar    1  ZINC000426567005   -0.1000
     27 C27         1.5421    5.2899   51.6486 C.ar    1  ZINC000426567005   -0.1300
     28 C28         0.6923    5.0717   50.5797 C.ar    1  ZINC000426567005   -0.1000
     29 C29        -0.4019    4.2414   50.7239 C.ar    1  ZINC000426567005   -0.1200
     30 C30        -5.2998    2.8755   52.9406 C.ar    1  ZINC000426567005   -0.0600
     31 C31        -6.3930    2.0510   53.0828 C.ar    1  ZINC000426567005   -0.1400
     32 H32        -8.8350   -2.1319   53.0865 H       1  ZINC000426567005    0.4300
     33 H33       -12.9941   -4.7487   52.1927 H       1  ZINC000426567005    0.4400
     34 H34       -14.3927   -4.7480   54.3730 H       1  ZINC000426567005    0.1100
     35 H35       -12.8832   -5.9677   55.8014 H       1  ZINC000426567005    0.0800
     36 H36       -12.0725   -4.4684   56.3629 H       1  ZINC000426567005    0.0700
     37 H37       -14.8880   -5.4809   57.0435 H       1  ZINC000426567005    0.0700
     38 H38       -13.6180   -4.8961   58.1638 H       1  ZINC000426567005    0.0700
     39 H39       -15.6669   -3.2847   57.2244 H       1  ZINC000426567005    0.0700
     40 H40       -14.0632   -2.6540   57.6949 H       1  ZINC000426567005    0.0700
     41 H41       -13.6606   -2.0591   55.5252 H       1  ZINC000426567005    0.0600
     42 H42       -15.2644   -2.6898   55.0547 H       1  ZINC000426567005    0.0700
     43 H43       -11.4540   -2.2638   55.1170 H       1  ZINC000426567005    0.1700
     44 H44        -7.3815   -0.9353   53.0847 H       1  ZINC000426567005    0.4300
     45 H45        -5.2604   -0.6604   51.3921 H       1  ZINC000426567005    0.1500
     46 H46        -3.3075    0.8058   51.1254 H       1  ZINC000426567005    0.1400
     47 H47        -1.6395    1.8432   52.2213 H       1  ZINC000426567005    0.4100
     48 H48         0.0089    3.3825   53.9705 H       1  ZINC000426567005    0.1300
     49 H49         1.9614    4.8560   53.6996 H       1  ZINC000426567005    0.1300
     50 H50         2.3996    5.9361   51.5320 H       1  ZINC000426567005    0.1200
     51 H51         0.8867    5.5478   49.6300 H       1  ZINC000426567005    0.1300
     52 H52        -1.0651    4.0710   49.8887 H       1  ZINC000426567005    0.1300
     53 H53        -5.3091    3.8649   53.3735 H       1  ZINC000426567005    0.1300
     54 H54        -7.2588    2.3928   53.6306 H       1  ZINC000426567005    0.1400
@<TRIPOS>BOND
     1     1     2    2
     2     2     3   am
     3     2    14    1
     4     3     4    1
     5     3    32    1
     6     4    13    1
     7     4     5    2
     8     5     6    1
     9     6     7    1
    10     6    33    1
    11     7     8    1
    12     7    13    2
    13     8    12    1
    14     8     9    1
    15     8    34    1
    16     9    10    1
    17     9    35    1
    18     9    36    1
    19    10    11    1
    20    10    37    1
    21    10    38    1
    22    11    12    1
    23    11    39    1
    24    11    40    1
    25    12    41    1
    26    12    42    1
    27    13    43    1
    28    14    15    2
    29    14    16   am
    30    16    17    1
    31    16    44    1
    32    17    31   ar
    33    17    18   ar
    34    18    19   ar
    35    18    45    1
    36    19    20   ar
    37    19    46    1
    38    20    21    1
    39    20    30   ar
    40    21    22    2
    41    21    23   am
    42    23    24    1
    43    23    47    1
    44    24    29   ar
    45    24    25   ar
    46    25    26   ar
    47    25    48    1
    48    26    27   ar
    49    26    49    1
    50    27    28   ar
    51    27    50    1
    52    28    29   ar
    53    28    51    1
    54    29    52    1
    55    30    31   ar
    56    30    53    1
    57    31    54    1
@<TRIPOS>SUBSTRUCTURE
     1 ZINC000426567005        1 TEMP              0 ****  ****    0 ROOT


##########                                Name:    ZINC000807524472
##########                DOCK_Rotatable_Bonds:                   9
##########                         Heavy_Atoms:                  28
##########                    Molecular_Weight:             410.534
##########                DOCK_Rotatable_Bonds:                   9
##########                       Formal_Charge:           0.0200006
##########                     HBond_Acceptors:                   8
##########                        HBond_Donors:                   0
##########                         Heavy_Atoms:                  28
##########                          Grid_Score:          -33.137222
##########                     Grid_vdw_energy:          -31.657709
##########                      Grid_es_energy:           -1.479513
##########           Internal_energy_repulsive:           15.325771

@<TRIPOS>MOLECULE
ZINC000807524472
 58 60 1 0 0
SMALL
USER_CHARGES


@<TRIPOS>ATOM
      1 C1        -11.4474   -2.4802   52.3913 C.3     1  ZINC000807524472   -0.1500
      2 C2        -10.2122   -1.7132   51.9149 C.3     1  ZINC000807524472    0.0600
      3 O3         -9.0466   -2.2495   52.5440 O.3     1  ZINC000807524472   -0.3800
      4 C4         -7.8234   -1.6556   52.1042 C.3     1  ZINC000807524472    0.0600
      5 C5         -7.8361   -0.1608   52.4299 C.3     1  ZINC000807524472    0.0700
      6 O6         -6.5728    0.4326   52.0296 O.3     1  ZINC000807524472   -0.3500
      7 C7         -6.4964    1.7780   52.0452 C.2     1  ZINC000807524472    0.5000
      8 O8         -7.5006    2.4452   51.8929 O.2     1  ZINC000807524472   -0.4600
      9 C9         -5.1960    2.4396   52.2467 C.ar    1  ZINC000807524472   -0.1200
     10 C10        -4.0963    2.0830   51.4614 C.ar    1  ZINC000807524472    0.0400
     11 C11        -2.8830    2.7062   51.6548 C.ar    1  ZINC000807524472   -0.7000
     12 S12        -1.4984    2.2549   50.6628 S.o2    1  ZINC000807524472    2.6900
     13 O13        -0.7249    1.3517   51.4406 O.2     1  ZINC000807524472   -0.9500
     14 O14        -2.0134    1.9307   49.3787 O.2     1  ZINC000807524472   -0.9500
     15 N15        -0.5728    3.6138   50.4658 N.am    1  ZINC000807524472   -0.9900
     16 C16         0.8225    3.6421   50.9251 C.3     1  ZINC000807524472    0.1200
     17 C17         1.7172    4.0721   49.7583 C.3     1  ZINC000807524472   -0.1400
     18 C18         1.2128    5.4038   49.1977 C.3     1  ZINC000807524472   -0.1200
     19 C19        -0.2145    5.2308   48.6737 C.3     1  ZINC000807524472   -0.1400
     20 C20        -1.1293    4.8120   49.8229 C.3     1  ZINC000807524472    0.1200
     21 C21        -2.7456    3.6862   52.6249 C.ar    1  ZINC000807524472    0.0200
     22 C22        -3.8214    4.0495   53.4089 C.ar    1  ZINC000807524472   -0.1800
     23 C23        -5.0547    3.4370   53.2254 C.ar    1  ZINC000807524472    0.2000
     24 N24        -6.1388    3.8010   54.0126 N.3     1  ZINC000807524472   -0.4800
     25 C25        -5.8566    3.5611   55.4510 C.3     1  ZINC000807524472    0.0400
     26 C26        -6.8823    4.4727   56.1704 C.3     1  ZINC000807524472   -0.1200
     27 C27        -6.9247    5.7260   55.2663 C.3     1  ZINC000807524472   -0.1300
     28 C28        -6.4188    5.2483   53.8925 C.3     1  ZINC000807524472    0.0400
     29 H29       -11.5408   -2.3828   53.4730 H       1  ZINC000807524472    0.0600
     30 H30       -12.3365   -2.0712   51.9115 H       1  ZINC000807524472    0.0700
     31 H31       -11.3448   -3.5332   52.1289 H       1  ZINC000807524472    0.0700
     32 H32       -10.1187   -1.8107   50.8334 H       1  ZINC000807524472    0.0500
     33 H33       -10.3148   -0.6602   52.1774 H       1  ZINC000807524472    0.0500
     34 H34        -6.9851   -2.1313   52.6131 H       1  ZINC000807524472    0.0600
     35 H35        -7.7197   -1.7921   51.0277 H       1  ZINC000807524472    0.0700
     36 H36        -8.6512    0.3217   51.8905 H       1  ZINC000807524472    0.0900
     37 H37        -7.9784   -0.0237   53.5019 H       1  ZINC000807524472    0.0800
     38 H38        -4.1975    1.3197   50.7042 H       1  ZINC000807524472    0.1600
     39 H39         0.9231    4.3542   51.7443 H       1  ZINC000807524472    0.0800
     40 H40         1.1160    2.6485   51.2638 H       1  ZINC000807524472    0.0900
     41 H41         2.7421    4.1902   50.1100 H       1  ZINC000807524472    0.0800
     42 H42         1.6854    3.3130   48.9767 H       1  ZINC000807524472    0.0700
     43 H43         1.2214    6.1563   49.9863 H       1  ZINC000807524472    0.0700
     44 H44         1.8624    5.7243   48.3832 H       1  ZINC000807524472    0.0700
     45 H45        -0.5647    6.1737   48.2535 H       1  ZINC000807524472    0.0800
     46 H46        -0.2282    4.4608   47.9023 H       1  ZINC000807524472    0.0700
     47 H47        -2.1244    4.5920   49.4362 H       1  ZINC000807524472    0.0900
     48 H48        -1.1892    5.6177   50.5545 H       1  ZINC000807524472    0.0800
     49 H49        -1.7900    4.1686   52.7685 H       1  ZINC000807524472    0.1500
     50 H50        -3.7057    4.8139   54.1630 H       1  ZINC000807524472    0.1400
     51 H51        -6.0255    2.5151   55.7070 H       1  ZINC000807524472    0.0900
     52 H52        -4.8376    3.8590   55.6979 H       1  ZINC000807524472    0.0500
     53 H53        -7.8608    3.9941   56.2124 H       1  ZINC000807524472    0.0800
     54 H54        -6.5345    4.7302   57.1708 H       1  ZINC000807524472    0.0800
     55 H55        -7.9456    6.0993   55.1846 H       1  ZINC000807524472    0.0800
     56 H56        -6.2684    6.5007   55.6627 H       1  ZINC000807524472    0.0700
     57 H57        -5.5064    5.7822   53.6266 H       1  ZINC000807524472    0.0500
     58 H58        -7.1849    5.4168   53.1357 H       1  ZINC000807524472    0.0900
@<TRIPOS>BOND
     1     1     2    1
     2     1    29    1
     3     1    30    1
     4     1    31    1
     5     2     3    1
     6     2    32    1
     7     2    33    1
     8     3     4    1
     9     4     5    1
    10     4    34    1
    11     4    35    1
    12     5     6    1
    13     5    36    1
    14     5    37    1
    15     6     7    1
    16     7     8    2
    17     7     9    1
    18     9    23   ar
    19     9    10   ar
    20    10    11   ar
    21    10    38    1
    22    11    12    1
    23    11    21   ar
    24    12    13    2
    25    12    14    2
    26    12    15   am
    27    15    20    1
    28    15    16    1
    29    16    17    1
    30    16    39    1
    31    16    40    1
    32    17    18    1
    33    17    41    1
    34    17    42    1
    35    18    19    1
    36    18    43    1
    37    18    44    1
    38    19    20    1
    39    19    45    1
    40    19    46    1
    41    20    47    1
    42    20    48    1
    43    21    22   ar
    44    21    49    1
    45    22    23   ar
    46    22    50    1
    47    23    24    1
    48    24    28    1
    49    24    25    1
    50    25    26    1
    51    25    51    1
    52    25    52    1
    53    26    27    1
    54    26    53    1
    55    26    54    1
    56    27    28    1
    57    27    55    1
    58    27    56    1
    59    28    57    1
    60    28    58    1
@<TRIPOS>SUBSTRUCTURE
     1 ZINC000807524472        1 TEMP              0 ****  ****    0 ROOT


##########                                Name:    ZINC000188380122
##########                DOCK_Rotatable_Bonds:                   6
##########                         Heavy_Atoms:                  27
##########                    Molecular_Weight:             396.433
##########                DOCK_Rotatable_Bonds:                   6
##########                       Formal_Charge:           0.0299998
##########                     HBond_Acceptors:                   8
##########                        HBond_Donors:                   1
##########                         Heavy_Atoms:                  27
##########                          Grid_Score:          -33.129856
##########                     Grid_vdw_energy:          -33.034248
##########                      Grid_es_energy:           -0.095607
##########           Internal_energy_repulsive:            9.002282

@<TRIPOS>MOLECULE
ZINC000188380122
 46 49 1 0 0
SMALL
USER_CHARGES


@<TRIPOS>ATOM
      1 O1         -1.8492    4.4661   49.7008 O.2     1  ZINC000188380122   -0.5200
      2 C2         -1.5585    3.4418   50.2816 C.2     1  ZINC000188380122    0.5200
      3 C3         -1.5896    3.3948   51.7875 C.3     1  ZINC000188380122   -0.0700
      4 C4         -3.0183    3.2998   52.2577 C.2     1  ZINC000188380122    0.0900
      5 C5         -3.6124    4.2919   52.9292 C.2     1  ZINC000188380122   -0.2400
      6 S6         -5.2641    3.7977   53.2955 S.3     1  ZINC000188380122    0.1000
      7 C7         -4.9788    2.2604   52.4835 C.2     1  ZINC000188380122    0.1100
      8 C8         -5.9678    1.1710   52.3368 C.ar    1  ZINC000188380122   -0.0200
      9 C9         -5.6156   -0.0119   51.6860 C.ar    1  ZINC000188380122   -0.0400
     10 C10        -6.5430   -1.0250   51.5527 C.ar    1  ZINC000188380122   -0.1200
     11 C11        -7.8197   -0.8695   52.0624 C.ar    1  ZINC000188380122   -0.0600
     12 C12        -8.1751    0.3012   52.7089 C.ar    1  ZINC000188380122   -0.1800
     13 C13        -9.5680    0.4618   53.2614 C.3     1  ZINC000188380122    0.5100
     14 F14        -9.6155   -0.0504   54.5624 F       1  ZINC000188380122   -0.1700
     15 F15        -9.9082    1.8186   53.2816 F       1  ZINC000188380122   -0.1700
     16 F16       -10.4733   -0.2340   52.4529 F       1  ZINC000188380122   -0.1700
     17 C17        -7.2557    1.3193   52.8537 C.ar    1  ZINC000188380122   -0.0500
     18 N18        -3.7587    2.2399   52.0286 N.2     1  ZINC000188380122   -0.4300
     19 N19        -1.2129    2.3441   49.5801 N.am    1  ZINC000188380122   -0.7200
     20 C20        -1.1826    2.3899   48.1162 C.3     1  ZINC000188380122    0.1300
     21 H21        -1.7614    3.2175   47.7060 H       1  ZINC000188380122    0.1200
     22 C22        -1.4842    1.0358   47.4498 C.3     1  ZINC000188380122   -0.1800
     23 C23        -0.3929    1.3981   46.4356 C.3     1  ZINC000188380122    0.0900
     24 H24        -0.7878    1.9967   45.6147 H       1  ZINC000188380122    0.1200
     25 O25         0.3747    0.3198   45.9630 O.3     1  ZINC000188380122   -0.3700
     26 C26         1.2528   -0.3513   46.8475 C.3     1  ZINC000188380122    0.0700
     27 C27         2.1012    0.6464   47.6347 C.3     1  ZINC000188380122   -0.1600
     28 C28         1.1684    1.5330   48.4656 C.3     1  ZINC000188380122   -0.1100
     29 C29         0.2362    2.2735   47.5229 C.3     1  ZINC000188380122   -0.1500
     30 H30         0.6482    3.2147   47.1589 H       1  ZINC000188380122    0.0900
     31 H31        -1.0340    2.5238   52.1355 H       1  ZINC000188380122    0.1100
     32 H32        -1.1345    4.3002   52.1889 H       1  ZINC000188380122    0.1100
     33 H33        -3.1583    5.2335   53.2006 H       1  ZINC000188380122    0.1800
     34 H34        -4.6195   -0.1343   51.2870 H       1  ZINC000188380122    0.1500
     35 H35        -6.2718   -1.9411   51.0493 H       1  ZINC000188380122    0.1400
     36 H36        -8.5420   -1.6650   51.9549 H       1  ZINC000188380122    0.1500
     37 H37        -7.5343    2.2324   53.3586 H       1  ZINC000188380122    0.1400
     38 H38        -0.9842    1.5238   50.0446 H       1  ZINC000188380122    0.4000
     39 H39        -1.2360    0.1761   48.0723 H       1  ZINC000188380122    0.0900
     40 H40        -2.4823    0.9734   47.0161 H       1  ZINC000188380122    0.0800
     41 H41         0.6691   -0.9531   47.5440 H       1  ZINC000188380122    0.0500
     42 H42         1.9092   -1.0051   46.2733 H       1  ZINC000188380122    0.1000
     43 H43         2.7796    0.1078   48.2963 H       1  ZINC000188380122    0.0800
     44 H44         2.6742    1.2647   46.9437 H       1  ZINC000188380122    0.0800
     45 H45         0.5843    0.9126   49.1453 H       1  ZINC000188380122    0.0700
     46 H46         1.7583    2.2494   49.0372 H       1  ZINC000188380122    0.0800
@<TRIPOS>BOND
     1     1     2    2
     2     2     3    1
     3     2    19   am
     4     3     4    1
     5     3    31    1
     6     3    32    1
     7     4    18    1
     8     4     5    2
     9     5     6    1
    10     5    33    1
    11     6     7    1
    12     7     8    1
    13     7    18    2
    14     8    17   ar
    15     8     9   ar
    16     9    10   ar
    17     9    34    1
    18    10    11   ar
    19    10    35    1
    20    11    12   ar
    21    11    36    1
    22    12    13    1
    23    12    17   ar
    24    13    14    1
    25    13    15    1
    26    13    16    1
    27    17    37    1
    28    19    20    1
    29    19    38    1
    30    20    21    1
    31    20    29    1
    32    20    22    1
    33    22    23    1
    34    22    39    1
    35    22    40    1
    36    23    24    1
    37    23    29    1
    38    23    25    1
    39    25    26    1
    40    26    27    1
    41    26    41    1
    42    26    42    1
    43    27    28    1
    44    27    43    1
    45    27    44    1
    46    28    29    1
    47    28    45    1
    48    28    46    1
    49    29    30    1
@<TRIPOS>SUBSTRUCTURE
     1 ZINC000188380122        1 TEMP              0 ****  ****    0 ROOT


##########                                Name:    ZINC000523153175
##########                DOCK_Rotatable_Bonds:                   9
##########                         Heavy_Atoms:                  30
##########                    Molecular_Weight:             413.603
##########                DOCK_Rotatable_Bonds:                   9
##########                       Formal_Charge:           0.0499987
##########                     HBond_Acceptors:                   5
##########                        HBond_Donors:                   1
##########                         Heavy_Atoms:                  30
##########                          Grid_Score:          -33.126816
##########                     Grid_vdw_energy:          -33.758202
##########                      Grid_es_energy:            0.631384
##########           Internal_energy_repulsive:           30.565615

@<TRIPOS>MOLECULE
ZINC000523153175
 69 71 1 0 0
SMALL
USER_CHARGES


@<TRIPOS>ATOM
      1 C1         -0.4257    2.8043   59.7823 C.3     1  ZINC000523153175   -0.1500
      2 C2         -0.2062    1.7760   58.6707 C.3     1  ZINC000523153175   -0.0600
      3 C3         -1.4422    0.8823   58.5513 C.3     1  ZINC000523153175   -0.1400
      4 C4          0.0251    2.4905   57.3641 C.ar    1  ZINC000523153175   -0.0800
      5 C5         -1.0080    3.1860   56.7643 C.ar    1  ZINC000523153175   -0.1100
      6 C6         -0.7958    3.8415   55.5659 C.ar    1  ZINC000523153175   -0.1100
      7 C7          0.4497    3.8016   54.9673 C.ar    1  ZINC000523153175   -0.0800
      8 C8          0.6809    4.5157   53.6605 C.3     1  ZINC000523153175   -0.0300
      9 H9         -0.2075    5.0903   53.3984 H       1  ZINC000523153175    0.0800
     10 C10         1.8764    5.4602   53.8001 C.3     1  ZINC000523153175   -0.1500
     11 C11         0.9670    3.4895   52.5624 C.3     1  ZINC000523153175   -0.1300
     12 C12        -0.3066    3.1822   51.8179 C.2     1  ZINC000523153175    0.5200
     13 O13        -1.3178    3.8052   52.0631 O.2     1  ZINC000523153175   -0.5300
     14 N14        -0.3221    2.2149   50.8795 N.am    1  ZINC000523153175   -0.6200
     15 C15        -1.5524    1.9043   50.1357 C.3     1  ZINC000523153175    0.1100
     16 C16        -1.2313    1.9154   48.6374 C.3     1  ZINC000523153175    0.0400
     17 N17        -0.1023    1.0130   48.3750 N.3     1  ZINC000523153175   -0.5100
     18 C18         0.1269    0.8624   46.9318 C.3     1  ZINC000523153175    0.0600
     19 H19         1.1628    0.5720   46.7568 H       1  ZINC000523153175    0.1100
     20 C20        -0.8058   -0.2160   46.3771 C.3     1  ZINC000523153175   -0.1800
     21 C21        -0.1515    2.1719   46.2398 C.2     1  ZINC000523153175    0.5200
     22 O22        -1.1607    2.3072   45.5811 O.2     1  ZINC000523153175   -0.5200
     23 N23         0.7213    3.1927   46.3529 N.am    1  ZINC000523153175   -0.7200
     24 C24         0.4499    4.4662   45.6816 C.3     1  ZINC000523153175    0.1400
     25 C25         0.8614    5.6417   46.5919 C.3     1  ZINC000523153175   -0.1300
     26 C26         2.2903    6.0068   46.1184 C.3     1  ZINC000523153175   -0.1300
     27 C27         2.1993    5.8216   44.5833 C.3     1  ZINC000523153175   -0.1300
     28 C28         1.3006    4.5807   44.4044 C.3     1  ZINC000523153175   -0.1300
     29 C29         1.1157    1.4712   49.0565 C.3     1  ZINC000523153175    0.0400
     30 C30         0.8924    1.4460   50.5677 C.3     1  ZINC000523153175    0.1200
     31 C31         1.4831    3.1072   55.5679 C.ar    1  ZINC000523153175   -0.1100
     32 C32         1.2720    2.4551   56.7683 C.ar    1  ZINC000523153175   -0.1200
     33 H33        -0.5931    2.2875   60.7273 H       1  ZINC000523153175    0.0600
     34 H34         0.4548    3.4410   59.8672 H       1  ZINC000523153175    0.0600
     35 H35        -1.2954    3.4167   59.5441 H       1  ZINC000523153175    0.0600
     36 H36         0.6634    1.1636   58.9088 H       1  ZINC000523153175    0.0800
     37 H37        -2.3119    1.4947   58.3131 H       1  ZINC000523153175    0.0600
     38 H38        -1.2859    0.1498   57.7593 H       1  ZINC000523153175    0.0600
     39 H39        -1.6096    0.3655   59.4963 H       1  ZINC000523153175    0.0600
     40 H40        -1.9811    3.2172   57.2319 H       1  ZINC000523153175    0.1200
     41 H41        -1.6032    4.3843   55.0968 H       1  ZINC000523153175    0.1200
     42 H42         2.0436    5.9767   52.8549 H       1  ZINC000523153175    0.0800
     43 H43         1.6725    6.1913   54.5825 H       1  ZINC000523153175    0.0600
     44 H44         2.7647    4.8856   54.0623 H       1  ZINC000523153175    0.0500
     45 H45         1.7042    3.8950   51.8693 H       1  ZINC000523153175    0.0900
     46 H46         1.3549    2.5753   53.0116 H       1  ZINC000523153175    0.0900
     47 H47        -1.9160    0.9182   50.4250 H       1  ZINC000523153175    0.0800
     48 H48        -2.3113    2.6558   50.3532 H       1  ZINC000523153175    0.0900
     49 H49        -2.1033    1.5798   48.0760 H       1  ZINC000523153175    0.0900
     50 H50        -0.9674    2.9271   48.3295 H       1  ZINC000523153175    0.0400
     51 H51        -1.8418    0.0745   46.5521 H       1  ZINC000523153175    0.0700
     52 H52        -0.6359   -0.3276   45.3063 H       1  ZINC000523153175    0.0700
     53 H53        -0.6046   -1.1632   46.8777 H       1  ZINC000523153175    0.0700
     54 H54         1.5291    3.0840   46.8787 H       1  ZINC000523153175    0.4000
     55 H55        -0.6088    4.5386   45.4326 H       1  ZINC000523153175    0.0900
     56 H56         0.1862    6.4861   46.4533 H       1  ZINC000523153175    0.0700
     57 H57         0.8737    5.3293   47.6362 H       1  ZINC000523153175    0.0700
     58 H58         2.5281    7.0404   46.3695 H       1  ZINC000523153175    0.0700
     59 H59         3.0251    5.3251   46.5469 H       1  ZINC000523153175    0.0700
     60 H60         1.7403    6.6951   44.1203 H       1  ZINC000523153175    0.0700
     61 H61         3.1881    5.6405   44.1617 H       1  ZINC000523153175    0.0700
     62 H62         1.9155    3.6886   44.2842 H       1  ZINC000523153175    0.0700
     63 H63         0.6547    4.7094   43.5359 H       1  ZINC000523153175    0.0800
     64 H64         1.9458    0.8134   48.7991 H       1  ZINC000523153175    0.1000
     65 H65         1.3469    2.4891   48.7427 H       1  ZINC000523153175    0.0400
     66 H66         1.7496    1.8921   51.0720 H       1  ZINC000523153175    0.1000
     67 H67         0.7626    0.4165   50.9016 H       1  ZINC000523153175    0.0800
     68 H68         2.4563    3.0764   55.1005 H       1  ZINC000523153175    0.1200
     69 H69         2.0794    1.9126   57.2374 H       1  ZINC000523153175    0.1200
@<TRIPOS>BOND
     1     1     2    1
     2     1    33    1
     3     1    34    1
     4     1    35    1
     5     2     3    1
     6     2     4    1
     7     2    36    1
     8     3    37    1
     9     3    38    1
    10     3    39    1
    11     4    32   ar
    12     4     5   ar
    13     5     6   ar
    14     5    40    1
    15     6     7   ar
    16     6    41    1
    17     7     8    1
    18     7    31   ar
    19     8     9    1
    20     8    10    1
    21     8    11    1
    22    10    42    1
    23    10    43    1
    24    10    44    1
    25    11    12    1
    26    11    45    1
    27    11    46    1
    28    12    13    2
    29    12    14   am
    30    14    30    1
    31    14    15    1
    32    15    16    1
    33    15    47    1
    34    15    48    1
    35    16    17    1
    36    16    49    1
    37    16    50    1
    38    17    18    1
    39    17    29    1
    40    18    19    1
    41    18    20    1
    42    18    21    1
    43    20    51    1
    44    20    52    1
    45    20    53    1
    46    21    22    2
    47    21    23   am
    48    23    24    1
    49    23    54    1
    50    24    28    1
    51    24    25    1
    52    24    55    1
    53    25    26    1
    54    25    56    1
    55    25    57    1
    56    26    27    1
    57    26    58    1
    58    26    59    1
    59    27    28    1
    60    27    60    1
    61    27    61    1
    62    28    62    1
    63    28    63    1
    64    29    30    1
    65    29    64    1
    66    29    65    1
    67    30    66    1
    68    30    67    1
    69    31    32   ar
    70    31    68    1
    71    32    69    1
@<TRIPOS>SUBSTRUCTURE
     1 ZINC000523153175        1 TEMP              0 ****  ****    0 ROOT


##########                                Name:    ZINC001400108193
##########                DOCK_Rotatable_Bonds:                   9
##########                         Heavy_Atoms:                  25
##########                    Molecular_Weight:              344.41
##########                DOCK_Rotatable_Bonds:                   9
##########                       Formal_Charge:           0.0200001
##########                     HBond_Acceptors:                   6
##########                        HBond_Donors:                   2
##########                         Heavy_Atoms:                  25
##########                          Grid_Score:          -33.101734
##########                     Grid_vdw_energy:          -32.885735
##########                      Grid_es_energy:           -0.215999
##########           Internal_energy_repulsive:            6.881787

@<TRIPOS>MOLECULE
ZINC001400108193
 49 50 1 0 0
SMALL
USER_CHARGES


@<TRIPOS>ATOM
      1 C1         -0.2426    2.3785   51.0411 C.3     1  ZINC001400108193   -0.0800
      2 C2         -1.6649    2.5390   51.5126 C.2     1  ZINC001400108193   -0.0100
      3 C3         -2.6736    1.6960   51.2435 C.2     1  ZINC001400108193   -0.1600
      4 C4         -3.8586    2.2589   51.9072 C.2     1  ZINC001400108193   -0.2300
      5 C5         -5.2241    1.7044   51.9130 C.2     1  ZINC001400108193    0.5900
      6 O6         -5.4392    0.6129   51.4216 O.2     1  ZINC001400108193   -0.5300
      7 N7         -6.2343    2.4068   52.4629 N.am    1  ZINC001400108193   -0.7300
      8 C8         -7.5920    1.8563   52.4671 C.3     1  ZINC001400108193    0.1100
      9 C9         -7.7188    0.8205   53.5860 C.3     1  ZINC001400108193    0.1300
     10 H10        -6.9455    0.0616   53.4679 H       1  ZINC001400108193    0.1000
     11 C11        -7.5533    1.5109   54.9413 C.3     1  ZINC001400108193   -0.1600
     12 N12        -9.0384    0.1876   53.5184 N.am    1  ZINC001400108193   -0.7300
     13 C13        -9.2065   -0.9461   52.8093 C.2     1  ZINC001400108193    0.5200
     14 O14        -8.2650   -1.4433   52.2285 O.2     1  ZINC001400108193   -0.5100
     15 C15       -10.5643   -1.5961   52.7383 C.3     1  ZINC001400108193    0.0700
     16 H16       -11.2334   -1.1190   53.4543 H       1  ZINC001400108193    0.1000
     17 C17       -11.1320   -1.4381   51.3263 C.3     1  ZINC001400108193   -0.1800
     18 O18       -10.4444   -2.9853   53.0508 O.3     1  ZINC001400108193   -0.2800
     19 C19       -11.2490   -3.4683   54.0337 C.ar    1  ZINC001400108193    0.1200
     20 C20       -10.9963   -3.1464   55.3593 C.ar    1  ZINC001400108193   -0.2100
     21 C21       -11.8160   -3.6382   56.3566 C.ar    1  ZINC001400108193   -0.0800
     22 C22       -12.8844   -4.4548   56.0350 C.ar    1  ZINC001400108193   -0.1200
     23 C23       -13.7733   -4.9950   57.1255 C.3     1  ZINC001400108193   -0.1100
     24 C24       -13.1414   -4.7728   54.7141 C.ar    1  ZINC001400108193   -0.0800
     25 C25       -12.3248   -4.2835   53.7131 C.ar    1  ZINC001400108193   -0.1400
     26 C26        -3.4314    3.4049   52.5114 C.2     1  ZINC001400108193    0.0200
     27 O27        -2.1249    3.5480   52.2686 O.3     1  ZINC001400108193   -0.1700
     28 H28        -0.1208    2.8752   50.0785 H       1  ZINC001400108193    0.0900
     29 H29         0.4342    2.8259   51.7690 H       1  ZINC001400108193    0.0800
     30 H30        -0.0125    1.3184   50.9346 H       1  ZINC001400108193    0.0900
     31 H31        -2.6248    0.7891   50.6593 H       1  ZINC001400108193    0.1600
     32 H32        -6.0625    3.2768   52.8559 H       1  ZINC001400108193    0.4000
     33 H33        -7.7943    1.3809   51.5073 H       1  ZINC001400108193    0.0800
     34 H34        -8.3094    2.6599   52.6328 H       1  ZINC001400108193    0.0900
     35 H35        -7.6435    0.7730   55.7384 H       1  ZINC001400108193    0.0700
     36 H36        -6.5714    1.9818   54.9916 H       1  ZINC001400108193    0.0700
     37 H37        -8.3266    2.2699   55.0594 H       1  ZINC001400108193    0.0600
     38 H38        -9.7911    0.5847   53.9839 H       1  ZINC001400108193    0.4000
     39 H39       -11.2235   -0.3786   51.0878 H       1  ZINC001400108193    0.0800
     40 H40       -10.4628   -1.9153   50.6102 H       1  ZINC001400108193    0.0800
     41 H41       -12.1141   -1.9083   51.2748 H       1  ZINC001400108193    0.0800
     42 H42       -10.1592   -2.5123   55.6114 H       1  ZINC001400108193    0.1300
     43 H43       -11.6195   -3.3883   57.3887 H       1  ZINC001400108193    0.1300
     44 H44       -14.5933   -4.2994   57.3037 H       1  ZINC001400108193    0.0700
     45 H45       -14.1759   -5.9610   56.8209 H       1  ZINC001400108193    0.0700
     46 H46       -13.1934   -5.1153   58.0407 H       1  ZINC001400108193    0.0700
     47 H47       -13.9790   -5.4075   54.4651 H       1  ZINC001400108193    0.1300
     48 H48       -12.5238   -4.5351   52.6819 H       1  ZINC001400108193    0.1300
     49 H49        -4.0442    4.0803   53.0900 H       1  ZINC001400108193    0.2100
@<TRIPOS>BOND
     1     1     2    1
     2     1    28    1
     3     1    29    1
     4     1    30    1
     5     2    27    1
     6     2     3    2
     7     3     4    1
     8     3    31    1
     9     4     5    1
    10     4    26    2
    11     5     6    2
    12     5     7   am
    13     7     8    1
    14     7    32    1
    15     8     9    1
    16     8    33    1
    17     8    34    1
    18     9    10    1
    19     9    11    1
    20     9    12    1
    21    11    35    1
    22    11    36    1
    23    11    37    1
    24    12    13   am
    25    12    38    1
    26    13    14    2
    27    13    15    1
    28    15    16    1
    29    15    17    1
    30    15    18    1
    31    17    39    1
    32    17    40    1
    33    17    41    1
    34    18    19    1
    35    19    25   ar
    36    19    20   ar
    37    20    21   ar
    38    20    42    1
    39    21    22   ar
    40    21    43    1
    41    22    23    1
    42    22    24   ar
    43    23    44    1
    44    23    45    1
    45    23    46    1
    46    24    25   ar
    47    24    47    1
    48    25    48    1
    49    26    27    1
    50    26    49    1
@<TRIPOS>SUBSTRUCTURE
     1 ZINC001400108193        1 TEMP              0 ****  ****    0 ROOT


##########                                Name:    ZINC000655235556
##########                DOCK_Rotatable_Bonds:                   6
##########                         Heavy_Atoms:                  23
##########                    Molecular_Weight:             336.778
##########                DOCK_Rotatable_Bonds:                   6
##########                       Formal_Charge:         -0.00999996
##########                     HBond_Acceptors:                   8
##########                        HBond_Donors:                   2
##########                         Heavy_Atoms:                  23
##########                          Grid_Score:          -33.100227
##########                     Grid_vdw_energy:          -32.201885
##########                      Grid_es_energy:           -0.898341
##########           Internal_energy_repulsive:            6.863628

@<TRIPOS>MOLECULE
ZINC000655235556
 40 42 1 0 0
SMALL
USER_CHARGES


@<TRIPOS>ATOM
      1 C1         -2.3485    1.7473   50.2864 C.3     1  ZINC000655235556    0.0200
      2 O2         -3.1552    1.3493   51.3969 O.3     1  ZINC000655235556   -0.2700
      3 C3         -3.7007    2.3386   52.1478 C.ar    1  ZINC000655235556    0.2000
      4 C4         -2.8880    3.2972   52.7326 C.ar    1  ZINC000655235556   -0.2100
      5 C5         -3.4455    4.3051   53.4972 C.ar    1  ZINC000655235556    0.0300
      6 Cl6        -2.4215    5.5022   54.2265 Cl      1  ZINC000655235556   -0.0500
      7 C7         -4.8181    4.3653   53.6842 C.ar    1  ZINC000655235556   -0.1600
      8 C8         -5.6397    3.4202   53.1099 C.ar    1  ZINC000655235556   -0.0300
      9 C9         -5.0895    2.3993   52.3309 C.ar    1  ZINC000655235556   -0.1700
     10 C10        -5.9637    1.3850   51.7131 C.2     1  ZINC000655235556    0.5700
     11 O11        -6.8466    1.7268   50.9498 O.2     1  ZINC000655235556   -0.5100
     12 N12        -5.7843    0.0792   51.9944 N.am    1  ZINC000655235556   -0.7300
     13 C13        -6.6517   -0.9286   51.3793 C.3     1  ZINC000655235556    0.2100
     14 C14        -7.9925   -0.9246   52.0671 C.2     1  ZINC000655235556    0.2600
     15 N15        -9.0294   -1.6494   51.7333 N.2     1  ZINC000655235556   -0.5100
     16 C16       -10.0447   -1.3920   52.5568 C.2     1  ZINC000655235556    0.2200
     17 C17       -11.4080   -2.0311   52.4926 C.3     1  ZINC000655235556    0.1700
     18 H18       -12.0823   -1.4057   51.9075 H       1  ZINC000655235556    0.1100
     19 C19       -11.9686   -2.2137   53.9194 C.3     1  ZINC000655235556   -0.1400
     20 C20       -12.6619   -3.6002   53.8262 C.3     1  ZINC000655235556   -0.1500
     21 C21       -11.7204   -4.3341   52.8383 C.3     1  ZINC000655235556    0.0500
     22 O22       -11.3083   -3.3292   51.8954 O.3     1  ZINC000655235556   -0.3700
     23 N23        -9.6664   -0.4957   53.4297 N.2     1  ZINC000655235556   -0.2800
     24 N24        -8.3302   -0.1799   53.1341 N.pl3   1  ZINC000655235556   -0.4700
     25 H25        -2.9475    2.3421   49.5969 H       1  ZINC000655235556    0.0600
     26 H26        -1.5074    2.3419   50.6431 H       1  ZINC000655235556    0.0600
     27 H27        -1.9752    0.8615   49.7726 H       1  ZINC000655235556    0.1100
     28 H28        -1.8181    3.2564   52.5910 H       1  ZINC000655235556    0.1500
     29 H29        -5.2449    5.1561   54.2831 H       1  ZINC000655235556    0.1400
     30 H30        -6.7082    3.4708   53.2585 H       1  ZINC000655235556    0.1400
     31 H31        -5.0809   -0.1934   52.6041 H       1  ZINC000655235556    0.4000
     32 H32        -6.7848   -0.6971   50.3225 H       1  ZINC000655235556    0.1000
     33 H33        -6.1941   -1.9126   51.4808 H       1  ZINC000655235556    0.1100
     34 H34       -11.1629   -2.2313   54.6534 H       1  ZINC000655235556    0.0800
     35 H35       -12.6921   -1.4332   54.1546 H       1  ZINC000655235556    0.0900
     36 H36       -12.6781   -4.0973   54.7962 H       1  ZINC000655235556    0.0900
     37 H37       -13.6679   -3.5097   53.4164 H       1  ZINC000655235556    0.0800
     38 H38       -10.8557   -4.7351   53.3669 H       1  ZINC000655235556    0.0600
     39 H39       -12.2570   -5.1336   52.3276 H       1  ZINC000655235556    0.0900
     40 H40        -7.7653    0.4542   53.6027 H       1  ZINC000655235556    0.4400
@<TRIPOS>BOND
     1     1     2    1
     2     1    25    1
     3     1    26    1
     4     1    27    1
     5     2     3    1
     6     3     9   ar
     7     3     4   ar
     8     4     5   ar
     9     4    28    1
    10     5     6    1
    11     5     7   ar
    12     7     8   ar
    13     7    29    1
    14     8     9   ar
    15     8    30    1
    16     9    10    1
    17    10    11    2
    18    10    12   am
    19    12    13    1
    20    12    31    1
    21    13    14    1
    22    13    32    1
    23    13    33    1
    24    14    24    1
    25    14    15    2
    26    15    16    1
    27    16    17    1
    28    16    23    2
    29    17    18    1
    30    17    22    1
    31    17    19    1
    32    19    20    1
    33    19    34    1
    34    19    35    1
    35    20    21    1
    36    20    36    1
    37    20    37    1
    38    21    22    1
    39    21    38    1
    40    21    39    1
    41    23    24    1
    42    24    40    1
@<TRIPOS>SUBSTRUCTURE
     1 ZINC000655235556        1 TEMP              0 ****  ****    0 ROOT


##########                                Name:    ZINC000550217006
##########                DOCK_Rotatable_Bonds:                   7
##########                         Heavy_Atoms:                  27
##########                    Molecular_Weight:             367.404
##########                DOCK_Rotatable_Bonds:                   7
##########                       Formal_Charge:          0.00999951
##########                     HBond_Acceptors:                   7
##########                        HBond_Donors:                   3
##########                         Heavy_Atoms:                  27
##########                          Grid_Score:          -33.076172
##########                     Grid_vdw_energy:          -31.888927
##########                      Grid_es_energy:           -1.187246
##########           Internal_energy_repulsive:            8.973048

@<TRIPOS>MOLECULE
ZINC000550217006
 48 50 1 0 0
SMALL
USER_CHARGES


@<TRIPOS>ATOM
      1 C1        -16.0940   -1.0245   48.6369 C.3     1  ZINC000550217006   -0.1500
      2 C2        -14.8736   -1.5814   47.9012 C.3     1  ZINC000550217006    0.0500
      3 O3        -13.7204   -1.4676   48.7374 O.3     1  ZINC000550217006   -0.3100
      4 C4        -13.3649   -0.2164   49.1311 C.ar    1  ZINC000550217006    0.1400
      5 C5        -13.1589    0.7772   48.1853 C.ar    1  ZINC000550217006   -0.2100
      6 C6        -12.7980    2.0487   48.5881 C.ar    1  ZINC000550217006   -0.0800
      7 C7        -12.6416    2.3308   49.9323 C.ar    1  ZINC000550217006   -0.1600
      8 C8        -12.8459    1.3419   50.8772 C.ar    1  ZINC000550217006   -0.0700
      9 C9        -13.2128    0.0709   50.4800 C.ar    1  ZINC000550217006   -0.1200
     10 C10       -13.4359   -1.0062   51.5101 C.3     1  ZINC000550217006   -0.0800
     11 C11       -12.1785   -1.8703   51.6249 C.3     1  ZINC000550217006    0.1300
     12 N12       -10.9929   -1.0099   51.6248 N.am    1  ZINC000550217006   -0.7200
     13 C13        -9.8162   -1.4838   52.0800 C.2     1  ZINC000550217006    0.5600
     14 O14        -9.7390   -2.6245   52.4920 O.2     1  ZINC000550217006   -0.5300
     15 C15        -8.6175   -0.6147   52.0783 C.ar    1  ZINC000550217006   -0.0800
     16 C16        -7.3500   -1.1705   51.8889 C.ar    1  ZINC000550217006   -0.1000
     17 C17        -6.2406   -0.3610   51.8893 C.ar    1  ZINC000550217006   -0.0500
     18 C18        -6.3634    1.0257   52.0776 C.ar    1  ZINC000550217006   -0.1300
     19 C19        -7.6273    1.5847   52.2636 C.ar    1  ZINC000550217006    0.1800
     20 C20        -8.7510    0.7563   52.2593 C.ar    1  ZINC000550217006   -0.0900
     21 N21        -7.8424    2.9402   52.4449 N.am    1  ZINC000550217006   -0.6600
     22 C22        -7.0949    3.7510   53.1875 C.2     1  ZINC000550217006    0.5100
     23 O23        -7.4206    4.9138   53.2992 O.2     1  ZINC000550217006   -0.5100
     24 C24        -5.8574    3.2685   53.8935 C.3     1  ZINC000550217006    0.0900
     25 N25        -4.8800    2.8390   52.8933 N.am    1  ZINC000550217006   -0.7100
     26 C26        -5.1279    1.8222   52.0696 C.2     1  ZINC000550217006    0.5600
     27 O27        -4.2733    1.5326   51.2551 O.2     1  ZINC000550217006   -0.5200
     28 H28       -15.9240    0.0243   48.8806 H       1  ZINC000550217006    0.0700
     29 H29       -16.9736   -1.1114   47.9992 H       1  ZINC000550217006    0.0800
     30 H30       -16.2538   -1.5896   49.5552 H       1  ZINC000550217006    0.0700
     31 H31       -15.0436   -2.6302   47.6576 H       1  ZINC000550217006    0.0600
     32 H32       -14.7138   -1.0163   46.9829 H       1  ZINC000550217006    0.0600
     33 H33       -13.2802    0.5571   47.1349 H       1  ZINC000550217006    0.1300
     34 H34       -12.6374    2.8225   47.8521 H       1  ZINC000550217006    0.1300
     35 H35       -12.3590    3.3252   50.2452 H       1  ZINC000550217006    0.1300
     36 H36       -12.7228    1.5647   51.9267 H       1  ZINC000550217006    0.1300
     37 H37       -13.6506   -0.5471   52.4751 H       1  ZINC000550217006    0.0800
     38 H38       -14.2783   -1.6286   51.2085 H       1  ZINC000550217006    0.0800
     39 H39       -12.2133   -2.4409   52.5529 H       1  ZINC000550217006    0.0700
     40 H40       -12.1301   -2.5557   50.7787 H       1  ZINC000550217006    0.0700
     41 H41       -11.0547   -0.0989   51.2970 H       1  ZINC000550217006    0.4000
     42 H42        -7.2426   -2.2352   51.7427 H       1  ZINC000550217006    0.1400
     43 H43        -5.2627   -0.7954   51.7434 H       1  ZINC000550217006    0.1500
     44 H44        -9.7318    1.1839   52.4061 H       1  ZINC000550217006    0.1500
     45 H45        -8.6042    3.3326   51.9903 H       1  ZINC000550217006    0.4200
     46 H46        -5.4378    4.0787   54.4898 H       1  ZINC000550217006    0.1300
     47 H47        -6.1103    2.4290   54.5410 H       1  ZINC000550217006    0.1000
     48 H48        -4.0322    3.3057   52.8282 H       1  ZINC000550217006    0.4200
@<TRIPOS>BOND
     1     1     2    1
     2     1    28    1
     3     1    29    1
     4     1    30    1
     5     2     3    1
     6     2    31    1
     7     2    32    1
     8     3     4    1
     9     4     9   ar
    10     4     5   ar
    11     5     6   ar
    12     5    33    1
    13     6     7   ar
    14     6    34    1
    15     7     8   ar
    16     7    35    1
    17     8     9   ar
    18     8    36    1
    19     9    10    1
    20    10    11    1
    21    10    37    1
    22    10    38    1
    23    11    12    1
    24    11    39    1
    25    11    40    1
    26    12    13   am
    27    12    41    1
    28    13    14    2
    29    13    15    1
    30    15    20   ar
    31    15    16   ar
    32    16    17   ar
    33    16    42    1
    34    17    18   ar
    35    17    43    1
    36    18    26    1
    37    18    19   ar
    38    19    20   ar
    39    19    21    1
    40    20    44    1
    41    21    22   am
    42    21    45    1
    43    22    23    2
    44    22    24    1
    45    24    25    1
    46    24    46    1
    47    24    47    1
    48    25    26   am
    49    25    48    1
    50    26    27    2
@<TRIPOS>SUBSTRUCTURE
     1 ZINC000550217006        1 TEMP              0 ****  ****    0 ROOT


##########                                Name:    ZINC000114394234
##########                DOCK_Rotatable_Bonds:                   9
##########                         Heavy_Atoms:                  27
##########                    Molecular_Weight:             365.392
##########                DOCK_Rotatable_Bonds:                   9
##########                       Formal_Charge:           0.0300002
##########                     HBond_Acceptors:                   8
##########                        HBond_Donors:                   3
##########                         Heavy_Atoms:                  27
##########                          Grid_Score:          -33.062157
##########                     Grid_vdw_energy:          -31.748871
##########                      Grid_es_energy:           -1.313287
##########           Internal_energy_repulsive:            9.518231

@<TRIPOS>MOLECULE
ZINC000114394234
 46 48 1 0 0
SMALL
USER_CHARGES


@<TRIPOS>ATOM
      1 C1        -15.1553   -3.3204   53.7897 C.3     1  ZINC000114394234   -0.1600
      2 C2        -13.7236   -3.5506   54.2776 C.3     1  ZINC000114394234    0.1300
      3 H3        -13.3443   -4.4849   53.8634 H       1  ZINC000114394234    0.1200
      4 N4        -12.8736   -2.4411   53.8382 N.am    1  ZINC000114394234   -0.7100
      5 C5        -11.5329   -2.5785   53.8377 C.2     1  ZINC000114394234    0.5200
      6 O6        -11.0299   -3.6201   54.2024 O.2     1  ZINC000114394234   -0.5100
      7 C7        -10.6588   -1.4380   53.3840 C.3     1  ZINC000114394234    0.0400
      8 O8         -9.3818   -1.9440   52.9899 O.3     1  ZINC000114394234   -0.2900
      9 C9         -8.4744   -1.0410   52.5334 C.ar    1  ZINC000114394234    0.1300
     10 C10        -7.2004   -1.4569   52.1747 C.ar    1  ZINC000114394234   -0.2100
     11 C11        -6.2801   -0.5371   51.7105 C.ar    1  ZINC000114394234   -0.0800
     12 C12        -6.6276    0.7968   51.6036 C.ar    1  ZINC000114394234   -0.1600
     13 C13        -7.8965    1.2138   51.9609 C.ar    1  ZINC000114394234   -0.0800
     14 C14        -8.8225    0.2971   52.4199 C.ar    1  ZINC000114394234   -0.1500
     15 C15       -13.7119   -3.6270   55.7826 C.2     1  ZINC000114394234    0.5100
     16 O16       -13.3707   -4.6515   56.3351 O.2     1  ZINC000114394234   -0.5100
     17 N17       -14.0807   -2.5572   56.5146 N.am    1  ZINC000114394234   -0.6700
     18 C18       -14.0698   -2.6283   57.9121 C.ar    1  ZINC000114394234    0.1300
     19 C19       -15.1705   -3.1364   58.5905 C.ar    1  ZINC000114394234   -0.1200
     20 C20       -15.1634   -3.2082   59.9709 C.ar    1  ZINC000114394234   -0.1000
     21 C21       -14.0630   -2.7750   60.6829 C.ar    1  ZINC000114394234   -0.0900
     22 C22       -12.9545   -2.2632   60.0105 C.ar    1  ZINC000114394234    0.0000
     23 C23       -11.7709   -1.7966   60.7746 C.2     1  ZINC000114394234    0.2700
     24 N24       -11.8009   -1.2062   61.9492 N.2     1  ZINC000114394234   -0.3000
     25 N25       -10.4680   -0.9375   62.3003 N.pl3   1  ZINC000114394234   -0.4800
     26 C26        -9.7067   -1.3949   61.2899 C.2     1  ZINC000114394234    0.2700
     27 N27       -10.4944   -1.9122   60.3845 N.2     1  ZINC000114394234   -0.5300
     28 C28       -12.9580   -2.1968   58.6201 C.ar    1  ZINC000114394234   -0.0800
     29 H29       -15.5346   -2.3863   54.2038 H       1  ZINC000114394234    0.0700
     30 H30       -15.1638   -3.2652   52.7011 H       1  ZINC000114394234    0.0800
     31 H31       -15.7876   -4.1460   54.1166 H       1  ZINC000114394234    0.0800
     32 H32       -13.2759   -1.6076   53.5477 H       1  ZINC000114394234    0.4100
     33 H33       -11.1273   -0.9352   52.5380 H       1  ZINC000114394234    0.1000
     34 H34       -10.5319   -0.7295   54.2027 H       1  ZINC000114394234    0.1000
     35 H35        -6.9282   -2.4987   52.2587 H       1  ZINC000114394234    0.1300
     36 H36        -5.2882   -0.8604   51.4311 H       1  ZINC000114394234    0.1300
     37 H37        -5.9065    1.5143   51.2407 H       1  ZINC000114394234    0.1300
     38 H38        -8.1654    2.2564   51.8769 H       1  ZINC000114394234    0.1300
     39 H39        -9.8135    0.6233   52.6989 H       1  ZINC000114394234    0.1300
     40 H40       -14.3535   -1.7380   56.0726 H       1  ZINC000114394234    0.4200
     41 H41       -16.0341   -3.4760   58.0380 H       1  ZINC000114394234    0.1300
     42 H42       -16.0215   -3.6040   60.4938 H       1  ZINC000114394234    0.1400
     43 H43       -14.0612   -2.8321   61.7614 H       1  ZINC000114394234    0.1400
     44 H44       -10.1573   -0.5066   63.1119 H       1  ZINC000114394234    0.4400
     45 H45        -8.6290   -1.3471   61.2380 H       1  ZINC000114394234    0.2300
     46 H46       -12.1015   -1.8011   58.0946 H       1  ZINC000114394234    0.1500
@<TRIPOS>BOND
     1     1     2    1
     2     1    29    1
     3     1    30    1
     4     1    31    1
     5     2     3    1
     6     2     4    1
     7     2    15    1
     8     4     5   am
     9     4    32    1
    10     5     6    2
    11     5     7    1
    12     7     8    1
    13     7    33    1
    14     7    34    1
    15     8     9    1
    16     9    14   ar
    17     9    10   ar
    18    10    11   ar
    19    10    35    1
    20    11    12   ar
    21    11    36    1
    22    12    13   ar
    23    12    37    1
    24    13    14   ar
    25    13    38    1
    26    14    39    1
    27    15    16    2
    28    15    17   am
    29    17    18    1
    30    17    40    1
    31    18    28   ar
    32    18    19   ar
    33    19    20   ar
    34    19    41    1
    35    20    21   ar
    36    20    42    1
    37    21    22   ar
    38    21    43    1
    39    22    23    1
    40    22    28   ar
    41    23    27    1
    42    23    24    2
    43    24    25    1
    44    25    26    1
    45    25    44    1
    46    26    27    2
    47    26    45    1
    48    28    46    1
@<TRIPOS>SUBSTRUCTURE
     1 ZINC000114394234        1 TEMP              0 ****  ****    0 ROOT


##########                                Name:    ZINC001181473921
##########                DOCK_Rotatable_Bonds:                   9
##########                         Heavy_Atoms:                  24
##########                    Molecular_Weight:             357.431
##########                DOCK_Rotatable_Bonds:                   9
##########                       Formal_Charge:        -5.96046e-08
##########                     HBond_Acceptors:                   9
##########                        HBond_Donors:                   4
##########                         Heavy_Atoms:                  24
##########                          Grid_Score:          -33.046959
##########                     Grid_vdw_energy:          -32.138706
##########                      Grid_es_energy:           -0.908254
##########           Internal_energy_repulsive:           15.767763

@<TRIPOS>MOLECULE
ZINC001181473921
 47 48 1 0 0
SMALL
USER_CHARGES


@<TRIPOS>ATOM
      1 C1         -6.8983    3.8968   53.6710 C.3     1  ZINC001181473921   -0.1300
      2 C2         -5.9740    2.9150   52.9981 C.2     1  ZINC001181473921    0.1900
      3 C3         -4.6423    3.1375   53.0108 C.2     1  ZINC001181473921   -0.2400
      4 C4         -3.7731    2.2226   52.3838 C.2     1  ZINC001181473921    0.2500
      5 O5         -2.4348    2.4316   52.3883 O.3     1  ZINC001181473921   -0.4600
      6 C6         -4.3074    1.1081   51.7641 C.2     1  ZINC001181473921   -0.3700
      7 C7         -5.6945    0.9206   51.7774 C.2     1  ZINC001181473921    0.5300
      8 O8         -6.1821   -0.0588   51.2350 O.2     1  ZINC001181473921   -0.5500
      9 N9         -6.4914    1.8146   52.3915 N.am    1  ZINC001181473921   -0.5000
     10 C10        -7.9412    1.6035   52.3968 C.3     1  ZINC001181473921    0.1000
     11 C11        -8.3454    0.8724   53.6786 C.3     1  ZINC001181473921   -0.1600
     12 C12        -9.1116   -0.3760   53.3245 C.2     1  ZINC001181473921    0.5200
     13 O13        -8.6351   -1.1818   52.5533 O.2     1  ZINC001181473921   -0.5300
     14 N14       -10.3264   -0.5972   53.8647 N.am    1  ZINC001181473921   -0.7200
     15 C15       -11.0721   -1.8100   53.5190 C.3     1  ZINC001181473921    0.1400
     16 H16       -10.4915   -2.4395   52.8446 H       1  ZINC001181473921    0.1000
     17 C17       -12.4425   -1.4519   52.8923 C.3     1  ZINC001181473921   -0.1300
     18 C18       -13.3140   -2.6981   53.1513 C.3     1  ZINC001181473921   -0.1500
     19 C19       -12.6978   -3.4218   54.3613 C.3     1  ZINC001181473921   -0.0800
     20 H20       -12.3849   -4.4262   54.0761 H       1  ZINC001181473921    0.0900
     21 C21       -13.7147   -3.4944   55.5022 C.3     1  ZINC001181473921   -0.6200
     22 S22       -13.2384   -4.8123   56.6539 S.o2    1  ZINC001181473921    2.6100
     23 N23       -11.7628   -4.3382   57.2370 N.am    1  ZINC001181473921   -1.2500
     24 O24       -14.0846   -4.8068   57.7956 O.2     1  ZINC001181473921   -0.9600
     25 O25       -12.9666   -6.0160   55.9494 O.2     1  ZINC001181473921   -0.9600
     26 C26       -11.4689   -2.5928   54.7953 C.3     1  ZINC001181473921   -0.1200
     27 H27        -7.5151    3.3732   54.4014 H       1  ZINC001181473921    0.0900
     28 H28        -6.3095    4.6631   54.1752 H       1  ZINC001181473921    0.1000
     29 H29        -7.5386    4.3643   52.9231 H       1  ZINC001181473921    0.0900
     30 H30        -4.2444    4.0143   53.5000 H       1  ZINC001181473921    0.1500
     31 H31        -1.9302    1.7398   52.8376 H       1  ZINC001181473921    0.4100
     32 H32        -3.6631    0.3918   51.2760 H       1  ZINC001181473921    0.1500
     33 H33        -8.4488    2.5670   52.3526 H       1  ZINC001181473921    0.1000
     34 H34        -8.2242    1.0037   51.5318 H       1  ZINC001181473921    0.1100
     35 H35        -7.4512    0.6027   54.2405 H       1  ZINC001181473921    0.1100
     36 H36        -8.9734    1.5241   54.2860 H       1  ZINC001181473921    0.1000
     37 H37       -10.7070    0.0467   54.4823 H       1  ZINC001181473921    0.4000
     38 H38       -12.8703   -0.5782   53.3841 H       1  ZINC001181473921    0.0700
     39 H39       -12.3379   -1.2752   51.8218 H       1  ZINC001181473921    0.0800
     40 H40       -14.3372   -2.3978   53.3770 H       1  ZINC001181473921    0.0900
     41 H41       -13.3002   -3.3513   52.2787 H       1  ZINC001181473921    0.0800
     42 H42       -13.7371   -2.5409   56.0302 H       1  ZINC001181473921    0.1400
     43 H43       -14.7031   -3.7074   55.0949 H       1  ZINC001181473921    0.1400
     44 H44       -11.0190   -4.2099   56.6278 H       1  ZINC001181473921    0.4100
     45 H45       -11.6422   -4.1887   58.1878 H       1  ZINC001181473921    0.4200
     46 H46       -10.6590   -3.2491   55.1135 H       1  ZINC001181473921    0.0800
     47 H47       -11.7377   -1.9019   55.5945 H       1  ZINC001181473921    0.0800
@<TRIPOS>BOND
     1     1     2    1
     2     1    27    1
     3     1    28    1
     4     1    29    1
     5     2     9    1
     6     2     3    2
     7     3     4    1
     8     3    30    1
     9     4     5    1
    10     4     6    2
    11     5    31    1
    12     6     7    1
    13     6    32    1
    14     7     8    2
    15     7     9   am
    16     9    10    1
    17    10    11    1
    18    10    33    1
    19    10    34    1
    20    11    12    1
    21    11    35    1
    22    11    36    1
    23    12    13    2
    24    12    14   am
    25    14    15    1
    26    14    37    1
    27    15    16    1
    28    15    26    1
    29    15    17    1
    30    17    18    1
    31    17    38    1
    32    17    39    1
    33    18    19    1
    34    18    40    1
    35    18    41    1
    36    19    20    1
    37    19    21    1
    38    19    26    1
    39    21    22    1
    40    21    42    1
    41    21    43    1
    42    22    23   am
    43    22    24    2
    44    22    25    2
    45    23    44    1
    46    23    45    1
    47    26    46    1
    48    26    47    1
@<TRIPOS>SUBSTRUCTURE
     1 ZINC001181473921        1 TEMP              0 ****  ****    0 ROOT


##########                                Name:    ZINC000914736341
##########                DOCK_Rotatable_Bonds:                   7
##########                         Heavy_Atoms:                  27
##########                    Molecular_Weight:             384.905
##########                DOCK_Rotatable_Bonds:                   7
##########                       Formal_Charge:                0.02
##########                     HBond_Acceptors:                   5
##########                        HBond_Donors:                   1
##########                         Heavy_Atoms:                  27
##########                          Grid_Score:          -33.044712
##########                     Grid_vdw_energy:          -32.439198
##########                      Grid_es_energy:           -0.605513
##########           Internal_energy_repulsive:           28.337942

@<TRIPOS>MOLECULE
ZINC000914736341
 52 54 1 0 0
SMALL
USER_CHARGES


@<TRIPOS>ATOM
      1 C1         -8.5846   -0.7453   60.6978 C.3     1  ZINC000914736341   -0.1400
      2 C2         -9.8277   -0.7624   59.8059 C.3     1  ZINC000914736341   -0.0300
      3 C3         -9.8215    0.4697   58.8988 C.3     1  ZINC000914736341   -0.1400
      4 C4         -9.8215   -2.0283   58.9468 C.3     1  ZINC000914736341    0.1300
      5 N5        -10.4125   -1.7340   57.6390 N.am    1  ZINC000914736341   -0.7200
      6 C6        -10.7984   -2.7418   56.8317 C.2     1  ZINC000914736341    0.5300
      7 O7        -10.6552   -3.8924   57.1872 O.2     1  ZINC000914736341   -0.5300
      8 C8        -11.4080   -2.4390   55.4871 C.3     1  ZINC000914736341   -0.1200
      9 H9        -12.4908   -2.3409   55.5651 H       1  ZINC000914736341    0.1200
     10 C10       -11.0235   -3.5188   54.4493 C.3     1  ZINC000914736341   -0.1400
     11 C11       -10.8317   -2.7457   53.1632 C.2     1  ZINC000914736341    0.5200
     12 O12       -10.7987   -3.2380   52.0552 O.2     1  ZINC000914736341   -0.5200
     13 N13       -10.7038   -1.4339   53.4271 N.am    1  ZINC000914736341   -0.6100
     14 C14       -10.5127   -0.4004   52.4065 C.3     1  ZINC000914736341    0.1600
     15 C15        -9.0477   -0.0630   52.3013 C.ar    1  ZINC000914736341   -0.1000
     16 C16        -8.1292   -1.0543   52.0126 C.ar    1  ZINC000914736341   -0.0800
     17 C17        -6.7852   -0.7450   51.9161 C.ar    1  ZINC000914736341   -0.1100
     18 C18        -6.3592    0.5557   52.1088 C.ar    1  ZINC000914736341   -0.1000
     19 C19        -7.2770    1.5482   52.3976 C.ar    1  ZINC000914736341   -0.1100
     20 C20        -8.6226    1.2405   52.4882 C.ar    1  ZINC000914736341   -0.0300
     21 Cl21       -9.7757    2.4864   52.8510 Cl      1  ZINC000914736341   -0.0600
     22 C22       -10.7811   -1.1695   54.8692 C.3     1  ZINC000914736341    0.1000
     23 C23       -11.0642   -0.7458   60.6673 C.ar    1  ZINC000914736341   -0.0700
     24 C24       -12.2319   -1.3281   60.2113 C.ar    1  ZINC000914736341   -0.1200
     25 C25       -13.3662   -1.3130   61.0014 C.ar    1  ZINC000914736341   -0.1200
     26 C26       -13.3323   -0.7158   62.2477 C.ar    1  ZINC000914736341   -0.1200
     27 C27       -12.1643   -0.1343   62.7040 C.ar    1  ZINC000914736341   -0.1200
     28 C28       -11.0289   -0.1532   61.9157 C.ar    1  ZINC000914736341   -0.1100
     29 H29        -8.5889    0.1566   61.3099 H       1  ZINC000914736341    0.0600
     30 H30        -8.5890   -1.6230   61.3440 H       1  ZINC000914736341    0.0600
     31 H31        -7.6903   -0.7573   60.0748 H       1  ZINC000914736341    0.0600
     32 H32        -8.9272    0.4577   58.2758 H       1  ZINC000914736341    0.0600
     33 H33       -10.7071    0.4575   58.2633 H       1  ZINC000914736341    0.0600
     34 H34        -9.8259    1.3716   59.5109 H       1  ZINC000914736341    0.0600
     35 H35        -8.7957   -2.3717   58.8130 H       1  ZINC000914736341    0.0700
     36 H36       -10.4033   -2.8060   59.4416 H       1  ZINC000914736341    0.0700
     37 H37       -10.5260   -0.8137   57.3542 H       1  ZINC000914736341    0.4000
     38 H38       -10.0963   -4.0133   54.7390 H       1  ZINC000914736341    0.1100
     39 H39       -11.8274   -4.2468   54.3407 H       1  ZINC000914736341    0.1100
     40 H40       -10.8707   -0.7686   51.4450 H       1  ZINC000914736341    0.1000
     41 H41       -11.0721    0.4928   52.6846 H       1  ZINC000914736341    0.1000
     42 H42        -8.4614   -2.0709   51.8627 H       1  ZINC000914736341    0.1400
     43 H43        -6.0677   -1.5201   51.6903 H       1  ZINC000914736341    0.1300
     44 H44        -5.3090    0.7967   52.0339 H       1  ZINC000914736341    0.1300
     45 H45        -6.9440    2.5646   52.5481 H       1  ZINC000914736341    0.1400
     46 H46       -11.4145   -0.3033   55.0604 H       1  ZINC000914736341    0.1000
     47 H47        -9.7835   -1.0056   55.2766 H       1  ZINC000914736341    0.0900
     48 H48       -12.2584   -1.7946   59.2376 H       1  ZINC000914736341    0.1300
     49 H49       -14.2788   -1.7673   60.6449 H       1  ZINC000914736341    0.1200
     50 H50       -14.2187   -0.7033   62.8647 H       1  ZINC000914736341    0.1200
     51 H51       -12.1380    0.3325   63.6776 H       1  ZINC000914736341    0.1200
     52 H52       -10.1163    0.3010   62.2723 H       1  ZINC000914736341    0.1200
@<TRIPOS>BOND
     1     1     2    1
     2     1    29    1
     3     1    30    1
     4     1    31    1
     5     2     3    1
     6     2     4    1
     7     2    23    1
     8     3    32    1
     9     3    33    1
    10     3    34    1
    11     4     5    1
    12     4    35    1
    13     4    36    1
    14     5     6   am
    15     5    37    1
    16     6     7    2
    17     6     8    1
    18     8     9    1
    19     8    22    1
    20     8    10    1
    21    10    11    1
    22    10    38    1
    23    10    39    1
    24    11    12    2
    25    11    13   am
    26    13    14    1
    27    13    22    1
    28    14    15    1
    29    14    40    1
    30    14    41    1
    31    15    20   ar
    32    15    16   ar
    33    16    17   ar
    34    16    42    1
    35    17    18   ar
    36    17    43    1
    37    18    19   ar
    38    18    44    1
    39    19    20   ar
    40    19    45    1
    41    20    21    1
    42    22    46    1
    43    22    47    1
    44    23    28   ar
    45    23    24   ar
    46    24    25   ar
    47    24    48    1
    48    25    26   ar
    49    25    49    1
    50    26    27   ar
    51    26    50    1
    52    27    28   ar
    53    27    51    1
    54    28    52    1
@<TRIPOS>SUBSTRUCTURE
     1 ZINC000914736341        1 TEMP              0 ****  ****    0 ROOT


##########                                Name:    ZINC001060578637
##########                DOCK_Rotatable_Bonds:                  10
##########                         Heavy_Atoms:                  25
##########                    Molecular_Weight:             345.401
##########                DOCK_Rotatable_Bonds:                  10
##########                       Formal_Charge:          -0.0400001
##########                     HBond_Acceptors:                   8
##########                        HBond_Donors:                   3
##########                         Heavy_Atoms:                  25
##########                          Grid_Score:          -33.034016
##########                     Grid_vdw_energy:          -31.974724
##########                      Grid_es_energy:           -1.059291
##########           Internal_energy_repulsive:           11.684262

@<TRIPOS>MOLECULE
ZINC001060578637
 48 49 1 0 0
SMALL
USER_CHARGES


@<TRIPOS>ATOM
      1 C1         -6.3414    0.3180   51.9764 C.3     1  ZINC001060578637   -0.1500
      2 C2         -7.3860   -0.7933   51.8559 C.3     1  ZINC001060578637   -0.1300
      3 C3         -8.6975   -0.3320   52.4947 C.3     1  ZINC001060578637    0.0700
      4 H4         -9.1088    0.4985   51.9209 H       1  ZINC001060578637    0.0900
      5 O5         -8.4502    0.0925   53.8366 O.3     1  ZINC001060578637   -0.3600
      6 C6         -9.5127    0.8575   54.4095 C.3     1  ZINC001060578637    0.0300
      7 C7         -9.6814   -1.4733   52.5023 C.2     1  ZINC001060578637    0.5000
      8 O8         -9.3074   -2.5946   52.7736 O.2     1  ZINC001060578637   -0.5200
      9 N9        -10.9772   -1.2480   52.2075 N.am    1  ZINC001060578637   -0.7300
     10 C10       -11.9341   -2.3572   52.2165 C.3     1  ZINC001060578637    0.1600
     11 C11       -12.2511   -2.7357   53.6403 C.ar    1  ZINC001060578637   -0.1100
     12 C12       -12.3411   -4.0680   53.9977 C.ar    1  ZINC001060578637   -0.0900
     13 C13       -12.6318   -4.4152   55.3038 C.ar    1  ZINC001060578637   -0.1100
     14 C14       -12.8321   -3.4300   56.2525 C.ar    1  ZINC001060578637   -0.0900
     15 C15       -13.1495   -3.8083   57.6763 C.3     1  ZINC001060578637    0.1800
     16 H16       -12.8564   -4.8436   57.8510 H       1  ZINC001060578637    0.1000
     17 C17       -14.6518   -3.6552   57.9219 C.3     1  ZINC001060578637   -0.1600
     18 N18       -12.4134   -2.9315   58.5904 N.am    1  ZINC001060578637   -0.7000
     19 C19       -11.0737   -3.0375   58.6933 C.2     1  ZINC001060578637    0.6100
     20 O20       -10.4762   -3.8619   58.0286 O.2     1  ZINC001060578637   -0.5300
     21 C21       -10.3327   -2.1538   59.6120 C.2     1  ZINC001060578637    0.1200
     22 N22       -10.8496   -1.3856   60.5471 N.2     1  ZINC001060578637   -0.2400
     23 N23        -9.9066   -0.7562   61.1537 N.2     1  ZINC001060578637   -0.2900
     24 C24        -8.7463   -1.0870   60.6418 C.2     1  ZINC001060578637    0.1900
     25 N25        -8.9733   -1.9805   59.6586 N.pl3   1  ZINC001060578637   -0.5500
     26 C26       -12.7407   -2.0977   55.8954 C.ar    1  ZINC001060578637   -0.1100
     27 C27       -12.4462   -1.7506   54.5903 C.ar    1  ZINC001060578637   -0.0900
     28 H28        -5.4167    0.0013   51.4939 H       1  ZINC001060578637    0.0600
     29 H29        -6.7134    1.2206   51.4917 H       1  ZINC001060578637    0.0500
     30 H30        -6.1497    0.5237   53.0295 H       1  ZINC001060578637    0.0600
     31 H31        -7.5549   -1.0206   50.8033 H       1  ZINC001060578637    0.0800
     32 H32        -7.0272   -1.6865   52.3674 H       1  ZINC001060578637    0.0800
     33 H33        -9.2822    1.0756   55.4523 H       1  ZINC001060578637    0.0900
     34 H34        -9.6253    1.7917   53.8592 H       1  ZINC001060578637    0.0500
     35 H35       -10.4408    0.2888   54.3537 H       1  ZINC001060578637    0.0400
     36 H36       -11.2760   -0.3513   51.9892 H       1  ZINC001060578637    0.4000
     37 H37       -12.8493   -2.0518   51.7093 H       1  ZINC001060578637    0.0800
     38 H38       -11.5015   -3.2144   51.7004 H       1  ZINC001060578637    0.0800
     39 H39       -12.1845   -4.8377   53.2565 H       1  ZINC001060578637    0.1300
     40 H40       -12.7028   -5.4561   55.5828 H       1  ZINC001060578637    0.1300
     41 H41       -14.9448   -2.6200   57.7472 H       1  ZINC001060578637    0.0600
     42 H42       -15.1996   -4.3076   57.2418 H       1  ZINC001060578637    0.0700
     43 H43       -14.8814   -3.9289   58.9517 H       1  ZINC001060578637    0.0700
     44 H44       -12.8902   -2.2747   59.1215 H       1  ZINC001060578637    0.4100
     45 H45        -7.7821   -0.7139   60.9541 H       1  ZINC001060578637    0.2300
     46 H46        -8.3105   -2.4093   59.0951 H       1  ZINC001060578637    0.4400
     47 H47       -12.8968   -1.3280   56.6368 H       1  ZINC001060578637    0.1300
     48 H48       -12.3749   -0.7096   54.3112 H       1  ZINC001060578637    0.1300
@<TRIPOS>BOND
     1     1     2    1
     2     1    28    1
     3     1    29    1
     4     1    30    1
     5     2     3    1
     6     2    31    1
     7     2    32    1
     8     3     4    1
     9     3     5    1
    10     3     7    1
    11     5     6    1
    12     6    33    1
    13     6    34    1
    14     6    35    1
    15     7     8    2
    16     7     9   am
    17     9    10    1
    18     9    36    1
    19    10    11    1
    20    10    37    1
    21    10    38    1
    22    11    27   ar
    23    11    12   ar
    24    12    13   ar
    25    12    39    1
    26    13    14   ar
    27    13    40    1
    28    14    15    1
    29    14    26   ar
    30    15    16    1
    31    15    17    1
    32    15    18    1
    33    17    41    1
    34    17    42    1
    35    17    43    1
    36    18    19   am
    37    18    44    1
    38    19    20    2
    39    19    21    1
    40    21    25    1
    41    21    22    2
    42    22    23    1
    43    23    24    2
    44    24    25    1
    45    24    45    1
    46    25    46    1
    47    26    27   ar
    48    26    47    1
    49    27    48    1
@<TRIPOS>SUBSTRUCTURE
     1 ZINC001060578637        1 TEMP              0 ****  ****    0 ROOT


##########                                Name:    ZINC000523863446
##########                DOCK_Rotatable_Bonds:                  10
##########                         Heavy_Atoms:                  29
##########                    Molecular_Weight:             396.533
##########                DOCK_Rotatable_Bonds:                  10
##########                       Formal_Charge:          -0.0200008
##########                     HBond_Acceptors:                   6
##########                        HBond_Donors:                   1
##########                         Heavy_Atoms:                  29
##########                          Grid_Score:          -33.032951
##########                     Grid_vdw_energy:          -32.684914
##########                      Grid_es_energy:           -0.348036
##########           Internal_energy_repulsive:           23.301462

@<TRIPOS>MOLECULE
ZINC000523863446
 61 63 1 0 0
SMALL
USER_CHARGES


@<TRIPOS>ATOM
      1 C1        -14.8637    0.1623   47.6665 C.3     1  ZINC000523863446   -0.1700
      2 C2        -14.5946   -1.3094   47.9873 C.3     1  ZINC000523863446    0.1500
      3 H3        -13.5218   -1.4988   47.9514 H       1  ZINC000523863446    0.1300
      4 C4        -15.1148   -1.6263   49.3657 C.2     1  ZINC000523863446    0.5100
      5 O5        -16.1638   -2.2210   49.4960 O.2     1  ZINC000523863446   -0.5100
      6 N6        -14.4145   -1.2488   50.4535 N.am    1  ZINC000523863446   -0.6000
      7 C7        -14.9193   -1.5585   51.7935 C.3     1  ZINC000523863446    0.0700
      8 C8        -13.1483   -0.5288   50.2959 C.3     1  ZINC000523863446    0.1000
      9 C9        -12.0962   -1.1664   51.1663 C.2     1  ZINC000523863446    0.5000
     10 O10       -11.9846   -2.3737   51.1969 O.2     1  ZINC000523863446   -0.5200
     11 N11       -11.2795   -0.3950   51.9108 N.am    1  ZINC000523863446   -0.7200
     12 C12       -10.2556   -1.0148   52.7556 C.3     1  ZINC000523863446    0.1900
     13 H13       -10.2842   -2.0968   52.6267 H       1  ZINC000523863446    0.1000
     14 C14       -10.5255   -0.6686   54.2213 C.3     1  ZINC000523863446   -0.1200
     15 C15       -11.5278   -1.6665   54.8048 C.3     1  ZINC000523863446   -0.0900
     16 C16       -10.7724   -2.8383   55.4351 C.3     1  ZINC000523863446   -0.1200
     17 C17       -11.7745   -3.8363   56.0187 C.3     1  ZINC000523863446   -0.1200
     18 C18       -12.6223   -3.1424   57.0868 C.3     1  ZINC000523863446   -0.1200
     19 C19       -13.3776   -1.9705   56.4565 C.3     1  ZINC000523863446   -0.1200
     20 C20       -12.3754   -0.9726   55.8730 C.3     1  ZINC000523863446   -0.1100
     21 C21        -8.8968   -0.4974   52.3593 C.ar    1  ZINC000523863446   -0.0900
     22 C22        -8.6442    0.8616   52.3710 C.ar    1  ZINC000523863446   -0.1100
     23 C23        -7.3978    1.3362   52.0075 C.ar    1  ZINC000523863446   -0.1200
     24 C24        -6.4038    0.4516   51.6327 C.ar    1  ZINC000523863446   -0.1200
     25 C25        -6.6560   -0.9075   51.6219 C.ar    1  ZINC000523863446   -0.1200
     26 C26        -7.9011   -1.3823   51.9895 C.ar    1  ZINC000523863446   -0.1000
     27 N27       -15.2730   -2.1558   47.0026 N.pl3   1  ZINC000523863446   -0.3600
     28 C28       -16.4129   -1.8532   46.3467 C.2     1  ZINC000523863446    0.0600
     29 C29       -16.7073   -2.8918   45.5307 C.2     1  ZINC000523863446   -0.2700
     30 C30       -15.7134   -3.8624   45.6937 C.2     1  ZINC000523863446    0.0500
     31 N31       -14.8498   -3.4196   46.5713 N.2     1  ZINC000523863446   -0.2900
     32 H32       -15.9365    0.3516   47.7023 H       1  ZINC000523863446    0.0700
     33 H33       -14.3589    0.7920   48.3991 H       1  ZINC000523863446    0.1000
     34 H34       -14.4874    0.3915   46.6696 H       1  ZINC000523863446    0.0800
     35 H35       -14.5380   -2.5293   52.1101 H       1  ZINC000523863446    0.0700
     36 H36       -14.5866   -0.7917   52.4932 H       1  ZINC000523863446    0.0800
     37 H37       -16.0088   -1.5846   51.7742 H       1  ZINC000523863446    0.0800
     38 H38       -12.8329   -0.5725   49.2534 H       1  ZINC000523863446    0.1100
     39 H39       -13.2829    0.5117   50.5916 H       1  ZINC000523863446    0.1100
     40 H40       -11.3697    0.5705   51.8873 H       1  ZINC000523863446    0.4000
     41 H41        -9.5934   -0.7184   54.7841 H       1  ZINC000523863446    0.0800
     42 H42       -10.9361    0.3391   54.2869 H       1  ZINC000523863446    0.0700
     43 H43       -12.1759   -2.0371   54.0107 H       1  ZINC000523863446    0.0700
     44 H44       -10.1685   -3.3326   54.6743 H       1  ZINC000523863446    0.0600
     45 H45       -10.1242   -2.4677   56.2292 H       1  ZINC000523863446    0.0600
     46 H46       -12.4227   -4.2069   55.2245 H       1  ZINC000523863446    0.0600
     47 H47       -11.2364   -4.6711   56.4677 H       1  ZINC000523863446    0.0600
     48 H48       -13.3362   -3.8534   57.5025 H       1  ZINC000523863446    0.0600
     49 H49       -11.9741   -2.7718   57.8809 H       1  ZINC000523863446    0.0600
     50 H50       -14.0257   -2.3411   55.6623 H       1  ZINC000523863446    0.0600
     51 H51       -13.9815   -1.4762   57.2174 H       1  ZINC000523863446    0.0600
     52 H52       -11.7273   -0.6021   56.6670 H       1  ZINC000523863446    0.0600
     53 H53       -12.9136   -0.1378   55.4239 H       1  ZINC000523863446    0.0600
     54 H54        -9.4207    1.5527   52.6639 H       1  ZINC000523863446    0.1200
     55 H55        -7.2007    2.3980   52.0159 H       1  ZINC000523863446    0.1200
     56 H56        -5.4302    0.8225   51.3480 H       1  ZINC000523863446    0.1200
     57 H57        -5.8796   -1.5985   51.3287 H       1  ZINC000523863446    0.1200
     58 H58        -8.0983   -2.4441   51.9810 H       1  ZINC000523863446    0.1200
     59 H59       -16.9873   -0.9450   46.4539 H       1  ZINC000523863446    0.1700
     60 H60       -17.5595   -2.9597   44.8708 H       1  ZINC000523863446    0.1500
     61 H61       -15.6645   -4.8111   45.1801 H       1  ZINC000523863446    0.1800
@<TRIPOS>BOND
     1     1     2    1
     2     1    32    1
     3     1    33    1
     4     1    34    1
     5     2     3    1
     6     2     4    1
     7     2    27    1
     8     4     5    2
     9     4     6   am
    10     6     7    1
    11     6     8    1
    12     7    35    1
    13     7    36    1
    14     7    37    1
    15     8     9    1
    16     8    38    1
    17     8    39    1
    18     9    10    2
    19     9    11   am
    20    11    12    1
    21    11    40    1
    22    12    13    1
    23    12    14    1
    24    12    21    1
    25    14    15    1
    26    14    41    1
    27    14    42    1
    28    15    20    1
    29    15    16    1
    30    15    43    1
    31    16    17    1
    32    16    44    1
    33    16    45    1
    34    17    18    1
    35    17    46    1
    36    17    47    1
    37    18    19    1
    38    18    48    1
    39    18    49    1
    40    19    20    1
    41    19    50    1
    42    19    51    1
    43    20    52    1
    44    20    53    1
    45    21    26   ar
    46    21    22   ar
    47    22    23   ar
    48    22    54    1
    49    23    24   ar
    50    23    55    1
    51    24    25   ar
    52    24    56    1
    53    25    26   ar
    54    25    57    1
    55    26    58    1
    56    27    31    1
    57    27    28    1
    58    28    29    2
    59    28    59    1
    60    29    30    1
    61    29    60    1
    62    30    31    2
    63    30    61    1
@<TRIPOS>SUBSTRUCTURE
     1 ZINC000523863446        1 TEMP              0 ****  ****    0 ROOT


##########                                Name:    ZINC001217683559
##########                DOCK_Rotatable_Bonds:                   3
##########                         Heavy_Atoms:                  25
##########                    Molecular_Weight:             397.234
##########                DOCK_Rotatable_Bonds:                   3
##########                       Formal_Charge:          0.00999987
##########                     HBond_Acceptors:                   7
##########                        HBond_Donors:                   0
##########                         Heavy_Atoms:                  25
##########                          Grid_Score:          -33.005611
##########                     Grid_vdw_energy:          -32.204296
##########                      Grid_es_energy:           -0.801316
##########           Internal_energy_repulsive:           31.079166

@<TRIPOS>MOLECULE
ZINC001217683559
 38 42 1 0 0
SMALL
USER_CHARGES


@<TRIPOS>ATOM
      1 Br1        -1.1225    4.9155   51.4514 Br      1  ZINC001217683559    0.0100
      2 C2         -0.8809    3.4241   50.3140 C.ar    1  ZINC001217683559   -0.1200
      3 C3          0.2363    3.3355   49.4989 C.ar    1  ZINC001217683559   -0.0500
      4 C4          0.3719    2.2236   48.6811 C.ar    1  ZINC001217683559   -0.1500
      5 C5         -0.6035    1.2430   48.7020 C.ar    1  ZINC001217683559    0.1200
      6 N6         -1.6560    1.3524   49.4862 N.ar    1  ZINC001217683559   -0.4400
      7 C7         -1.8209    2.3958   50.2878 C.ar    1  ZINC001217683559    0.2200
      8 C8         -3.0239    2.4757   51.1544 C.2     1  ZINC001217683559    0.2100
      9 N9         -3.2730    3.3950   52.0511 N.2     1  ZINC001217683559   -0.3300
     10 O10        -4.3376    3.1805   52.5907 O.3     1  ZINC001217683559    0.1000
     11 C11        -4.8937    2.0708   52.0796 C.2     1  ZINC001217683559    0.2300
     12 C12        -6.1882    1.4751   52.4695 C.2     1  ZINC001217683559   -0.0600
     13 C13        -6.5962    0.2980   51.9086 C.2     1  ZINC001217683559    0.1800
     14 N14        -7.7831   -0.2556   52.2607 N.pl3   1  ZINC001217683559   -0.2900
     15 N15        -8.4490   -1.4244   51.8647 N.2     1  ZINC001217683559   -0.3300
     16 C16        -9.5778   -1.4697   52.5318 C.2     1  ZINC001217683559    0.2800
     17 C17       -10.6106   -2.5612   52.4173 C.3     1  ZINC001217683559   -0.0300
     18 C18       -10.7601   -3.4042   53.6947 C.3     1  ZINC001217683559   -0.1200
     19 C19       -12.2756   -3.3875   53.4342 C.3     1  ZINC001217683559   -0.1400
     20 C20       -12.0491   -2.0762   52.6633 C.3     1  ZINC001217683559   -0.1200
     21 N21        -9.6712   -0.4098   53.3225 N.2     1  ZINC001217683559   -0.5300
     22 C22        -8.5922    0.3509   53.1808 C.2     1  ZINC001217683559    0.2900
     23 C23        -8.1952    1.5649   53.7745 C.2     1  ZINC001217683559   -0.1000
     24 C24        -7.0045    2.1199   53.4285 C.2     1  ZINC001217683559   -0.0200
     25 N25        -4.0645    1.6168   51.1579 N.2     1  ZINC001217683559   -0.4300
     26 H26         0.9841    4.1147   49.5003 H       1  ZINC001217683559    0.1600
     27 H27         1.2308    2.1245   48.0337 H       1  ZINC001217683559    0.1500
     28 H28        -0.5008    0.3760   48.0663 H       1  ZINC001217683559    0.1800
     29 H29        -5.9697   -0.1946   51.1798 H       1  ZINC001217683559    0.1900
     30 H30       -10.4994   -3.1558   51.5106 H       1  ZINC001217683559    0.1200
     31 H31       -10.3148   -4.3962   53.6177 H       1  ZINC001217683559    0.0700
     32 H32       -10.4673   -2.8770   54.6026 H       1  ZINC001217683559    0.1000
     33 H33       -12.6198   -4.2093   52.8062 H       1  ZINC001217683559    0.0800
     34 H34       -12.8726   -3.2652   54.3379 H       1  ZINC001217683559    0.0800
     35 H35       -12.1087   -1.1859   53.2893 H       1  ZINC001217683559    0.0900
     36 H36       -12.6445   -1.9960   51.7538 H       1  ZINC001217683559    0.0700
     37 H37        -8.8305    2.0487   54.5017 H       1  ZINC001217683559    0.1700
     38 H38        -6.6874    3.0504   53.8757 H       1  ZINC001217683559    0.1700
@<TRIPOS>BOND
     1     1     2    1
     2     2     7   ar
     3     2     3   ar
     4     3     4   ar
     5     3    26    1
     6     4     5   ar
     7     4    27    1
     8     5     6   ar
     9     5    28    1
    10     6     7   ar
    11     7     8    1
    12     8    25    1
    13     8     9    2
    14     9    10    1
    15    10    11    1
    16    11    12    1
    17    11    25    2
    18    12    24    1
    19    12    13    2
    20    13    14    1
    21    13    29    1
    22    14    22    1
    23    14    15    1
    24    15    16    2
    25    16    17    1
    26    16    21    1
    27    17    20    1
    28    17    18    1
    29    17    30    1
    30    18    19    1
    31    18    31    1
    32    18    32    1
    33    19    20    1
    34    19    33    1
    35    19    34    1
    36    20    35    1
    37    20    36    1
    38    21    22    2
    39    22    23    1
    40    23    24    2
    41    23    37    1
    42    24    38    1
@<TRIPOS>SUBSTRUCTURE
     1 ZINC001217683559        1 TEMP              0 ****  ****    0 ROOT


##########                                Name:    ZINC000980108339
##########                DOCK_Rotatable_Bonds:                   9
##########                         Heavy_Atoms:                  25
##########                    Molecular_Weight:             348.445
##########                DOCK_Rotatable_Bonds:                   9
##########                       Formal_Charge:          -0.0100001
##########                     HBond_Acceptors:                   7
##########                        HBond_Donors:                   3
##########                         Heavy_Atoms:                  25
##########                          Grid_Score:          -32.955147
##########                     Grid_vdw_energy:          -33.102871
##########                      Grid_es_energy:            0.147725
##########           Internal_energy_repulsive:            7.822397

@<TRIPOS>MOLECULE
ZINC000980108339
 53 56 1 0 0
SMALL
USER_CHARGES


@<TRIPOS>ATOM
      1 C1         -7.5971   -1.1023   51.9590 C.3     1  ZINC000980108339    0.1200
      2 N2         -8.9961   -1.1537   52.3910 N.am    1  ZINC000980108339   -0.6400
      3 C3         -9.9750   -2.1747   51.9886 C.3     1  ZINC000980108339    0.1100
      4 C4        -11.2657   -1.7569   52.7197 C.3     1  ZINC000980108339    0.1000
      5 H5        -12.0557   -1.5322   52.0031 H       1  ZINC000980108339    0.1200
      6 C6        -11.7084   -2.8386   53.6710 C.2     1  ZINC000980108339    0.5000
      7 O7        -10.8860   -3.4479   54.3215 O.2     1  ZINC000980108339   -0.5200
      8 N8        -13.0183   -3.1287   53.7990 N.am    1  ZINC000980108339   -0.7200
      9 C9        -13.4486   -4.1813   54.7225 C.3     1  ZINC000980108339    0.1300
     10 C10       -13.5015   -3.6213   56.1454 C.3     1  ZINC000980108339   -0.1200
     11 H11       -12.5464   -3.2123   56.4750 H       1  ZINC000980108339    0.1000
     12 C12       -14.6928   -2.6810   56.3934 C.3     1  ZINC000980108339   -0.1400
     13 C13       -14.8273   -3.3440   57.7746 C.3     1  ZINC000980108339    0.1200
     14 H14       -15.8600   -3.5190   58.0761 H       1  ZINC000980108339    0.1100
     15 N15       -14.0326   -2.6919   58.8183 N.am    1  ZINC000980108339   -0.7200
     16 C16       -14.4655   -2.6933   60.0946 C.2     1  ZINC000980108339    0.5200
     17 O17       -15.5123   -3.2357   60.3793 O.2     1  ZINC000980108339   -0.5300
     18 C18       -13.6489   -2.0210   61.1682 C.3     1  ZINC000980108339   -0.1100
     19 C19       -12.1614   -2.1534   60.8357 C.3     1  ZINC000980108339   -0.1300
     20 H20       -11.8710   -3.0802   60.3408 H       1  ZINC000980108339    0.1200
     21 C21       -11.1612   -1.5302   61.8115 C.3     1  ZINC000980108339   -0.1700
     22 C22       -11.4080   -0.8794   60.4481 C.3     1  ZINC000980108339   -0.1200
     23 H23       -11.9720    0.0532   60.4303 H       1  ZINC000980108339    0.1000
     24 C24       -10.3040   -1.0032   59.3961 C.3     1  ZINC000980108339   -0.1300
     25 C25        -9.8710    0.2738   58.6730 C.3     1  ZINC000980108339   -0.1800
     26 C26        -8.9502   -0.3655   59.7143 C.3     1  ZINC000980108339   -0.1800
     27 C27       -14.1445   -4.5801   57.1614 C.3     1  ZINC000980108339   -0.1400
     28 N28       -10.8769   -0.5449   53.4563 N.am    1  ZINC000980108339   -0.7200
     29 C29        -9.5850   -0.2815   53.2195 C.2     1  ZINC000980108339    0.7000
     30 O30        -9.0024    0.6686   53.7054 O.2     1  ZINC000980108339   -0.5800
     31 H31        -7.1070   -0.2427   52.4162 H       1  ZINC000980108339    0.0900
     32 H32        -7.0883   -2.0162   52.2659 H       1  ZINC000980108339    0.0600
     33 H33        -7.5550   -1.0099   50.8738 H       1  ZINC000980108339    0.0600
     34 H34       -10.1241   -2.1573   50.9090 H       1  ZINC000980108339    0.1000
     35 H35        -9.6530   -3.1633   52.3156 H       1  ZINC000980108339    0.0900
     36 H36       -13.6763   -2.6405   53.2797 H       1  ZINC000980108339    0.4000
     37 H37       -14.4385   -4.5352   54.4344 H       1  ZINC000980108339    0.0700
     38 H38       -12.7413   -5.0098   54.6843 H       1  ZINC000980108339    0.0700
     39 H39       -14.4156   -1.6279   56.4398 H       1  ZINC000980108339    0.0800
     40 H40       -15.5410   -2.8679   55.7350 H       1  ZINC000980108339    0.1000
     41 H41       -13.1948   -2.2591   58.5909 H       1  ZINC000980108339    0.4000
     42 H42       -13.9168   -0.9657   61.2210 H       1  ZINC000980108339    0.1000
     43 H43       -13.8503   -2.4955   62.1285 H       1  ZINC000980108339    0.1000
     44 H44       -11.5630   -1.0258   62.6903 H       1  ZINC000980108339    0.0900
     45 H45       -10.2127   -2.0467   61.9582 H       1  ZINC000980108339    0.1000
     46 H46       -10.3013   -1.9313   58.8244 H       1  ZINC000980108339    0.1000
     47 H47        -9.5833    0.1859   57.6252 H       1  ZINC000980108339    0.0900
     48 H48       -10.3725    1.2019   58.9468 H       1  ZINC000980108339    0.0900
     49 H49        -8.8459    0.1421   60.6733 H       1  ZINC000980108339    0.0900
     50 H50        -8.0568   -0.8739   59.3518 H       1  ZINC000980108339    0.0900
     51 H51       -14.8425   -5.2867   56.7125 H       1  ZINC000980108339    0.1000
     52 H52       -13.4266   -5.0580   57.8279 H       1  ZINC000980108339    0.0800
     53 H53       -11.4619   -0.0218   54.0263 H       1  ZINC000980108339    0.4400
@<TRIPOS>BOND
     1     1     2    1
     2     1    31    1
     3     1    32    1
     4     1    33    1
     5     2    29   am
     6     2     3    1
     7     3     4    1
     8     3    34    1
     9     3    35    1
    10     4     5    1
    11     4     6    1
    12     4    28    1
    13     6     7    2
    14     6     8   am
    15     8     9    1
    16     8    36    1
    17     9    10    1
    18     9    37    1
    19     9    38    1
    20    10    11    1
    21    10    27    1
    22    10    12    1
    23    12    13    1
    24    12    39    1
    25    12    40    1
    26    13    14    1
    27    13    15    1
    28    13    27    1
    29    15    16   am
    30    15    41    1
    31    16    17    2
    32    16    18    1
    33    18    19    1
    34    18    42    1
    35    18    43    1
    36    19    20    1
    37    19    22    1
    38    19    21    1
    39    21    22    1
    40    21    44    1
    41    21    45    1
    42    22    23    1
    43    22    24    1
    44    24    26    1
    45    24    25    1
    46    24    46    1
    47    25    26    1
    48    25    47    1
    49    25    48    1
    50    26    49    1
    51    26    50    1
    52    27    51    1
    53    27    52    1
    54    28    29   am
    55    28    53    1
    56    29    30    2
@<TRIPOS>SUBSTRUCTURE
     1 ZINC000980108339        1 TEMP              0 ****  ****    0 ROOT


##########                                Name:    ZINC000532153088
##########                DOCK_Rotatable_Bonds:                  11
##########                         Heavy_Atoms:                  29
##########                    Molecular_Weight:             402.484
##########                DOCK_Rotatable_Bonds:                  11
##########                       Formal_Charge:          -0.0200009
##########                     HBond_Acceptors:                   6
##########                        HBond_Donors:                   1
##########                         Heavy_Atoms:                  29
##########                          Grid_Score:          -32.902191
##########                     Grid_vdw_energy:          -33.086838
##########                      Grid_es_energy:            0.184647
##########           Internal_energy_repulsive:           16.153343

@<TRIPOS>MOLECULE
ZINC000532153088
 57 59 1 0 0
SMALL
USER_CHARGES


@<TRIPOS>ATOM
      1 C1         -8.9907   -0.8929   61.4194 C.3     1  ZINC000532153088   -0.1800
      2 C2         -9.8763   -0.3670   60.2880 C.3     1  ZINC000532153088    0.0800
      3 C3         -9.0073   -0.0311   59.0744 C.3     1  ZINC000532153088   -0.1500
      4 O4        -10.8322   -1.3662   59.9275 O.3     1  ZINC000532153088   -0.3800
      5 C5        -11.9038   -0.8797   59.1169 C.3     1  ZINC000532153088    0.1000
      6 C6        -12.8395   -2.0143   58.7876 C.ar    1  ZINC000532153088   -0.0700
      7 C7        -14.1528   -1.9735   59.2163 C.ar    1  ZINC000532153088   -0.1000
      8 C8        -15.0112   -3.0144   58.9142 C.ar    1  ZINC000532153088   -0.1100
      9 C9        -14.5561   -4.0955   58.1831 C.ar    1  ZINC000532153088   -0.1200
     10 C10       -13.2426   -4.1358   57.7534 C.ar    1  ZINC000532153088   -0.1000
     11 C11       -12.3857   -3.0932   58.0517 C.ar    1  ZINC000532153088   -0.1100
     12 C12       -10.9539   -3.1371   57.5834 C.3     1  ZINC000532153088    0.1600
     13 N13       -10.9095   -3.5877   56.1901 N.am    1  ZINC000532153088   -0.7300
     14 C14       -10.8431   -2.6849   55.1916 C.2     1  ZINC000532153088    0.5100
     15 O15       -10.8217   -1.4994   55.4465 O.2     1  ZINC000532153088   -0.5000
     16 C16       -10.7955   -3.1485   53.7585 C.3     1  ZINC000532153088    0.0300
     17 N17       -11.6483   -2.2812   52.9347 N.3     1  ZINC000532153088   -0.4800
     18 C18       -10.9760   -1.9209   51.6793 C.3     1  ZINC000532153088    0.1000
     19 C19       -10.1800   -0.6573   51.8805 C.ar    1  ZINC000532153088   -0.1300
     20 C20       -10.8220    0.5660   51.9101 C.ar    1  ZINC000532153088   -0.0600
     21 C21       -10.0932    1.7260   52.0950 C.ar    1  ZINC000532153088   -0.1700
     22 C22        -8.7189    1.6632   52.2507 C.ar    1  ZINC000532153088    0.1300
     23 F23        -8.0069    2.7970   52.4320 F       1  ZINC000532153088   -0.1300
     24 C24        -8.0747    0.4382   52.2213 C.ar    1  ZINC000532153088   -0.2000
     25 C25        -8.8060   -0.7229   52.0414 C.ar    1  ZINC000532153088    0.1600
     26 F26        -8.1786   -1.9190   52.0124 F       1  ZINC000532153088   -0.1100
     27 C27       -12.9473   -2.9153   52.6731 C.3     1  ZINC000532153088    0.0200
     28 C28       -14.0811   -2.6372   53.6620 C.3     1  ZINC000532153088   -0.2200
     29 C29       -14.1090   -2.0053   52.2690 C.3     1  ZINC000532153088   -0.1700
     30 H30        -8.2616   -0.1309   61.6944 H       1  ZINC000532153088    0.0700
     31 H31        -9.6098   -1.1323   62.2840 H       1  ZINC000532153088    0.0600
     32 H32        -8.4699   -1.7905   61.0858 H       1  ZINC000532153088    0.0700
     33 H33       -10.3971    0.5306   60.6216 H       1  ZINC000532153088    0.0600
     34 H34        -8.4865   -0.9286   58.7407 H       1  ZINC000532153088    0.0600
     35 H35        -9.6383    0.3436   58.2684 H       1  ZINC000532153088    0.0600
     36 H36        -8.2782    0.7310   59.3493 H       1  ZINC000532153088    0.0700
     37 H37       -12.4474   -0.1061   59.6591 H       1  ZINC000532153088    0.0600
     38 H38       -11.5007   -0.4618   58.1943 H       1  ZINC000532153088    0.0600
     39 H39       -14.5084   -1.1288   59.7877 H       1  ZINC000532153088    0.1300
     40 H40       -16.0372   -2.9830   59.2499 H       1  ZINC000532153088    0.1200
     41 H41       -15.2265   -4.9088   57.9476 H       1  ZINC000532153088    0.1300
     42 H42       -12.8869   -4.9806   57.1823 H       1  ZINC000532153088    0.1300
     43 H43       -10.5168   -2.1412   57.6573 H       1  ZINC000532153088    0.0800
     44 H44       -10.3885   -3.8293   58.2072 H       1  ZINC000532153088    0.0800
     45 H45       -10.9278   -4.5359   55.9863 H       1  ZINC000532153088    0.4000
     46 H46        -9.7691   -3.1001   53.3948 H       1  ZINC000532153088    0.0700
     47 H47       -11.1548   -4.1758   53.6969 H       1  ZINC000532153088    0.1100
     48 H48       -10.3071   -2.7281   51.3807 H       1  ZINC000532153088    0.0900
     49 H49       -11.7219   -1.7605   50.9008 H       1  ZINC000532153088    0.0500
     50 H50       -11.8939    0.6160   51.7883 H       1  ZINC000532153088    0.1400
     51 H51       -10.5959    2.6816   52.1176 H       1  ZINC000532153088    0.1400
     52 H52        -7.0026    0.3883   52.3427 H       1  ZINC000532153088    0.1500
     53 H53       -12.9042   -3.9067   52.2222 H       1  ZINC000532153088    0.1200
     54 H54       -14.7842   -3.4458   53.8621 H       1  ZINC000532153088    0.1000
     55 H55       -13.8631   -1.9837   54.5069 H       1  ZINC000532153088    0.1000
     56 H56       -13.9094   -0.9361   52.1972 H       1  ZINC000532153088    0.1000
     57 H57       -14.8304   -2.3982   51.5525 H       1  ZINC000532153088    0.1000
@<TRIPOS>BOND
     1     1     2    1
     2     1    30    1
     3     1    31    1
     4     1    32    1
     5     2     3    1
     6     2     4    1
     7     2    33    1
     8     3    34    1
     9     3    35    1
    10     3    36    1
    11     4     5    1
    12     5     6    1
    13     5    37    1
    14     5    38    1
    15     6    11   ar
    16     6     7   ar
    17     7     8   ar
    18     7    39    1
    19     8     9   ar
    20     8    40    1
    21     9    10   ar
    22     9    41    1
    23    10    11   ar
    24    10    42    1
    25    11    12    1
    26    12    13    1
    27    12    43    1
    28    12    44    1
    29    13    14   am
    30    13    45    1
    31    14    15    2
    32    14    16    1
    33    16    17    1
    34    16    46    1
    35    16    47    1
    36    17    18    1
    37    17    27    1
    38    18    19    1
    39    18    48    1
    40    18    49    1
    41    19    25   ar
    42    19    20   ar
    43    20    21   ar
    44    20    50    1
    45    21    22   ar
    46    21    51    1
    47    22    23    1
    48    22    24   ar
    49    24    25   ar
    50    24    52    1
    51    25    26    1
    52    27    29    1
    53    27    28    1
    54    27    53    1
    55    28    29    1
    56    28    54    1
    57    28    55    1
    58    29    56    1
    59    29    57    1
@<TRIPOS>SUBSTRUCTURE
     1 ZINC000532153088        1 TEMP              0 ****  ****    0 ROOT


##########                                Name:    ZINC000498646479
##########                DOCK_Rotatable_Bonds:                   7
##########                         Heavy_Atoms:                  29
##########                    Molecular_Weight:              407.58
##########                DOCK_Rotatable_Bonds:                   7
##########                       Formal_Charge:          -0.0199997
##########                     HBond_Acceptors:                   5
##########                        HBond_Donors:                   0
##########                         Heavy_Atoms:                  29
##########                          Grid_Score:          -32.900188
##########                     Grid_vdw_energy:          -33.114758
##########                      Grid_es_energy:            0.214570
##########           Internal_energy_repulsive:           31.180065

@<TRIPOS>MOLECULE
ZINC000498646479
 58 61 1 0 0
SMALL
USER_CHARGES


@<TRIPOS>ATOM
      1 C1        -12.3363   -1.4878   60.4967 C.3     1  ZINC000498646479   -0.1500
      2 C2        -11.1230   -2.0268   59.7363 C.3     1  ZINC000498646479   -0.0600
      3 C3        -11.5747   -3.0631   58.7397 C.2     1  ZINC000498646479   -0.1700
      4 C4        -10.8887   -4.1565   58.4032 C.2     1  ZINC000498646479   -0.1400
      5 C5        -11.5049   -4.9654   57.4639 C.2     1  ZINC000498646479   -0.1300
      6 C6        -12.6911   -4.5289   57.0377 C.2     1  ZINC000498646479   -0.1900
      7 C7        -13.5596   -5.2257   56.0223 C.3     1  ZINC000498646479    0.1300
      8 N8        -13.5529   -4.4633   54.7666 N.3     1  ZINC000498646479   -0.5300
      9 C9        -12.2446   -3.8353   54.5390 C.3     1  ZINC000498646479    0.0400
     10 C10       -12.2202   -3.2051   53.1424 C.3     1  ZINC000498646479    0.1200
     11 N11       -13.3740   -2.3015   53.0174 N.am    1  ZINC000498646479   -0.6100
     12 C12       -13.2150   -1.0306   52.5979 C.2     1  ZINC000498646479    0.5200
     13 O13       -14.1775   -0.2992   52.5006 O.2     1  ZINC000498646479   -0.5400
     14 C14       -11.8412   -0.5184   52.2497 C.3     1  ZINC000498646479   -0.1000
     15 H15       -11.2823   -1.2990   51.7336 H       1  ZINC000498646479    0.0900
     16 C16       -11.9685    0.7047   51.3392 C.3     1  ZINC000498646479   -0.1500
     17 C17       -11.1034   -0.1255   53.5312 C.3     1  ZINC000498646479   -0.0600
     18 C18        -9.9992    0.8444   53.1979 C.ar    1  ZINC000498646479   -0.1200
     19 C19        -8.7660    0.3845   52.7018 C.ar    1  ZINC000498646479   -0.0200
     20 C20        -8.5043   -0.9775   52.4945 C.ar    1  ZINC000498646479   -0.1200
     21 C21        -7.2899   -1.3608   52.0111 C.ar    1  ZINC000498646479   -0.1000
     22 C22        -6.3032   -0.4204   51.7199 C.ar    1  ZINC000498646479   -0.1200
     23 C23        -6.5224    0.9103   51.9089 C.ar    1  ZINC000498646479   -0.0900
     24 C24        -7.7622    1.3433   52.4052 C.ar    1  ZINC000498646479   -0.1100
     25 C25        -8.0462    2.7013   52.6199 C.ar    1  ZINC000498646479    0.1400
     26 N26        -9.2206    3.0582   53.0852 N.ar    1  ZINC000498646479   -0.4800
     27 C27       -10.1773    2.1843   53.3656 C.ar    1  ZINC000498646479    0.0800
     28 C28       -14.7058   -2.8217   53.3620 C.3     1  ZINC000498646479    0.1100
     29 C29       -14.6323   -3.4671   54.7499 C.3     1  ZINC000498646479    0.0400
     30 S30       -13.0902   -3.0198   57.8483 S.3     1  ZINC000498646479    0.1300
     31 H31       -12.0097   -0.7382   61.2176 H       1  ZINC000498646479    0.0600
     32 H32       -13.0345   -1.0349   59.7927 H       1  ZINC000498646479    0.0600
     33 H33       -12.8292   -2.3061   61.0217 H       1  ZINC000498646479    0.0600
     34 H34       -10.6302   -1.2085   59.2114 H       1  ZINC000498646479    0.0800
     35 H35       -10.4249   -2.4796   60.4403 H       1  ZINC000498646479    0.0700
     36 H36        -9.9256   -4.3926   58.8307 H       1  ZINC000498646479    0.1400
     37 H37       -11.0587   -5.8804   57.1031 H       1  ZINC000498646479    0.1300
     38 H38       -13.1729   -6.2285   55.8405 H       1  ZINC000498646479    0.0900
     39 H39       -14.5794   -5.2928   56.4012 H       1  ZINC000498646479    0.0500
     40 H40       -12.0763   -3.0630   55.2894 H       1  ZINC000498646479    0.0400
     41 H41       -11.4614   -4.5900   54.6112 H       1  ZINC000498646479    0.1000
     42 H42       -11.2971   -2.6406   53.0115 H       1  ZINC000498646479    0.1000
     43 H43       -12.2845   -3.9877   52.3864 H       1  ZINC000498646479    0.0800
     44 H44       -10.9767    1.0244   51.0195 H       1  ZINC000498646479    0.0700
     45 H45       -12.5663    0.4462   50.4652 H       1  ZINC000498646479    0.0600
     46 H46       -12.4531    1.5146   51.8843 H       1  ZINC000498646479    0.0700
     47 H47       -11.8024    0.3438   54.2236 H       1  ZINC000498646479    0.0900
     48 H48       -10.6775   -1.0163   53.9929 H       1  ZINC000498646479    0.0800
     49 H49        -9.2596   -1.7169   52.7165 H       1  ZINC000498646479    0.1400
     50 H50        -7.0881   -2.4097   51.8513 H       1  ZINC000498646479    0.1300
     51 H51        -5.3490   -0.7524   51.3385 H       1  ZINC000498646479    0.1300
     52 H52        -5.7482    1.6271   51.6787 H       1  ZINC000498646479    0.1300
     53 H53        -7.2996    3.4510   52.4029 H       1  ZINC000498646479    0.1600
     54 H54       -11.1218    2.5444   53.7458 H       1  ZINC000498646479    0.1500
     55 H55       -15.4260   -2.0037   53.3762 H       1  ZINC000498646479    0.0900
     56 H56       -15.0090   -3.5674   52.6270 H       1  ZINC000498646479    0.0800
     57 H57       -15.5808   -3.9546   54.9750 H       1  ZINC000498646479    0.0900
     58 H58       -14.4308   -2.6998   55.4974 H       1  ZINC000498646479    0.0400
@<TRIPOS>BOND
     1     1     2    1
     2     1    31    1
     3     1    32    1
     4     1    33    1
     5     2     3    1
     6     2    34    1
     7     2    35    1
     8     3    30    1
     9     3     4    2
    10     4     5    1
    11     4    36    1
    12     5     6    2
    13     5    37    1
    14     6     7    1
    15     6    30    1
    16     7     8    1
    17     7    38    1
    18     7    39    1
    19     8    29    1
    20     8     9    1
    21     9    10    1
    22     9    40    1
    23     9    41    1
    24    10    11    1
    25    10    42    1
    26    10    43    1
    27    11    12   am
    28    11    28    1
    29    12    13    2
    30    12    14    1
    31    14    15    1
    32    14    16    1
    33    14    17    1
    34    16    44    1
    35    16    45    1
    36    16    46    1
    37    17    18    1
    38    17    47    1
    39    17    48    1
    40    18    27   ar
    41    18    19   ar
    42    19    24   ar
    43    19    20   ar
    44    20    21   ar
    45    20    49    1
    46    21    22   ar
    47    21    50    1
    48    22    23   ar
    49    22    51    1
    50    23    24   ar
    51    23    52    1
    52    24    25   ar
    53    25    26   ar
    54    25    53    1
    55    26    27   ar
    56    27    54    1
    57    28    29    1
    58    28    55    1
    59    28    56    1
    60    29    57    1
    61    29    58    1
@<TRIPOS>SUBSTRUCTURE
     1 ZINC000498646479        1 TEMP              0 ****  ****    0 ROOT


##########                                Name:    ZINC000898967786
##########                DOCK_Rotatable_Bonds:                   5
##########                         Heavy_Atoms:                  25
##########                    Molecular_Weight:             356.448
##########                DOCK_Rotatable_Bonds:                   5
##########                       Formal_Charge:        -2.38419e-07
##########                     HBond_Acceptors:                   7
##########                        HBond_Donors:                   1
##########                         Heavy_Atoms:                  25
##########                          Grid_Score:          -32.895981
##########                     Grid_vdw_energy:          -32.541241
##########                      Grid_es_energy:           -0.354738
##########           Internal_energy_repulsive:           10.542388

@<TRIPOS>MOLECULE
ZINC000898967786
 45 48 1 0 0
SMALL
USER_CHARGES


@<TRIPOS>ATOM
      1 C1        -12.3497    0.0684   52.5607 C.3     1  ZINC000898967786   -0.0800
      2 C2        -10.8501    0.0969   52.4142 C.2     1  ZINC000898967786    0.0900
      3 C3        -10.0400   -0.9842   52.3894 C.2     1  ZINC000898967786   -0.1000
      4 C4        -10.4672   -2.4248   52.5024 C.3     1  ZINC000898967786    0.2200
      5 N5        -10.7376   -2.7453   53.9062 N.am    1  ZINC000898967786   -0.7400
      6 C6        -11.7144   -3.6186   54.2221 C.2     1  ZINC000898967786    0.7100
      7 O7        -12.3711   -4.1405   53.3420 O.2     1  ZINC000898967786   -0.5800
      8 N8        -11.9630   -3.9133   55.5135 N.am    1  ZINC000898967786   -0.6300
      9 C9        -13.0241   -4.8636   55.8828 C.3     1  ZINC000898967786    0.0900
     10 C10       -13.9097   -4.2090   56.9491 C.3     1  ZINC000898967786    0.0500
     11 O11       -13.0867   -3.7304   58.0156 O.3     1  ZINC000898967786   -0.3700
     12 C12       -12.1566   -2.7165   57.6274 C.3     1  ZINC000898967786    0.1400
     13 H13       -12.6955   -1.8770   57.1882 H       1  ZINC000898967786    0.0700
     14 C14       -11.3910   -2.2459   58.8370 C.2     1  ZINC000898967786   -0.1100
     15 C15       -10.2081   -1.6364   58.7449 C.2     1  ZINC000898967786   -0.1800
     16 S16        -9.6238   -1.2363   60.3549 S.3     1  ZINC000898967786    0.1100
     17 C17       -11.0614   -1.9400   61.0841 C.2     1  ZINC000898967786   -0.2100
     18 C18       -11.8646   -2.4082   60.1276 C.2     1  ZINC000898967786   -0.1300
     19 C19       -11.1774   -3.2990   56.5956 C.3     1  ZINC000898967786    0.0900
     20 N20        -8.7591   -0.5260   52.2419 N.pl3   1  ZINC000898967786   -0.3500
     21 C21        -7.5548   -1.1626   52.1569 C.2     1  ZINC000898967786    0.0600
     22 C22        -6.4135   -0.4575   52.0111 C.2     1  ZINC000898967786   -0.1400
     23 C23        -6.4506    0.9452   51.9451 C.2     1  ZINC000898967786   -0.1000
     24 C24        -7.6441    1.5923   52.0285 C.2     1  ZINC000898967786   -0.0800
     25 C25        -8.8273    0.8417   52.1802 C.2     1  ZINC000898967786    0.2400
     26 N26       -10.1011    1.1941   52.2814 N.2     1  ZINC000898967786   -0.4900
     27 H27       -12.8099    0.0059   51.5746 H       1  ZINC000898967786    0.0800
     28 H28       -12.6405   -0.7990   53.1531 H       1  ZINC000898967786    0.0700
     29 H29       -12.6832    0.9780   53.0602 H       1  ZINC000898967786    0.0800
     30 H30       -11.3705   -2.5834   51.9132 H       1  ZINC000898967786    0.1000
     31 H31        -9.6720   -3.0700   52.1292 H       1  ZINC000898967786    0.0700
     32 H32       -10.2136   -2.3288   54.6083 H       1  ZINC000898967786    0.4000
     33 H33       -13.6235   -5.1040   55.0048 H       1  ZINC000898967786    0.1100
     34 H34       -12.5784   -5.7738   56.2840 H       1  ZINC000898967786    0.0800
     35 H35       -14.4550   -3.3748   56.5075 H       1  ZINC000898967786    0.0600
     36 H36       -14.6167   -4.9430   57.3360 H       1  ZINC000898967786    0.1100
     37 H37        -9.6883   -1.4217   57.8229 H       1  ZINC000898967786    0.1700
     38 H38       -11.2648   -1.9824   62.1439 H       1  ZINC000898967786    0.1700
     39 H39       -12.8090   -2.8851   60.3440 H       1  ZINC000898967786    0.1400
     40 H40       -10.5470   -4.0504   57.0711 H       1  ZINC000898967786    0.0800
     41 H41       -10.5556   -2.5016   56.1886 H       1  ZINC000898967786    0.0900
     42 H42        -7.5150   -2.2408   52.2072 H       1  ZINC000898967786    0.1600
     43 H43        -5.4673   -0.9739   51.9451 H       1  ZINC000898967786    0.1500
     44 H44        -5.5357    1.5072   51.8291 H       1  ZINC000898967786    0.1500
     45 H45        -7.6847    2.6705   51.9793 H       1  ZINC000898967786    0.1500
@<TRIPOS>BOND
     1     1     2    1
     2     1    27    1
     3     1    28    1
     4     1    29    1
     5     2    26    1
     6     2     3    2
     7     3     4    1
     8     3    20    1
     9     4     5    1
    10     4    30    1
    11     4    31    1
    12     5     6   am
    13     5    32    1
    14     6     7    2
    15     6     8   am
    16     8    19    1
    17     8     9    1
    18     9    10    1
    19     9    33    1
    20     9    34    1
    21    10    11    1
    22    10    35    1
    23    10    36    1
    24    11    12    1
    25    12    13    1
    26    12    14    1
    27    12    19    1
    28    14    18    1
    29    14    15    2
    30    15    16    1
    31    15    37    1
    32    16    17    1
    33    17    18    2
    34    17    38    1
    35    18    39    1
    36    19    40    1
    37    19    41    1
    38    20    25    1
    39    20    21    1
    40    21    22    2
    41    21    42    1
    42    22    23    1
    43    22    43    1
    44    23    24    2
    45    23    44    1
    46    24    25    1
    47    24    45    1
    48    25    26    2
@<TRIPOS>SUBSTRUCTURE
     1 ZINC000898967786        1 TEMP              0 ****  ****    0 ROOT


##########                                Name:    ZINC000523878927
##########                DOCK_Rotatable_Bonds:                   8
##########                         Heavy_Atoms:                  27
##########                    Molecular_Weight:             376.474
##########                DOCK_Rotatable_Bonds:                   8
##########                       Formal_Charge:          0.00999957
##########                     HBond_Acceptors:                   7
##########                        HBond_Donors:                   3
##########                         Heavy_Atoms:                  27
##########                          Grid_Score:          -32.890839
##########                     Grid_vdw_energy:          -30.390541
##########                      Grid_es_energy:           -2.500296
##########           Internal_energy_repulsive:            7.650344

@<TRIPOS>MOLECULE
ZINC000523878927
 56 58 1 0 0
SMALL
USER_CHARGES


@<TRIPOS>ATOM
      1 C1        -13.6180   -5.4500   56.3446 C.3     1  ZINC000523878927   -0.1500
      2 C2        -13.1689   -3.9984   56.5239 C.3     1  ZINC000523878927   -0.0900
      3 H3        -12.7152   -3.8773   57.5075 H       1  ZINC000523878927    0.0700
      4 C4        -14.3801   -3.0713   56.4032 C.3     1  ZINC000523878927   -0.1200
      5 C5        -15.0169   -3.2413   55.0225 C.3     1  ZINC000523878927   -0.1200
      6 C6        -13.9936   -2.8868   53.9417 C.3     1  ZINC000523878927   -0.1100
      7 C7        -12.7825   -3.8140   54.0624 C.3     1  ZINC000523878927   -0.1000
      8 H8        -13.1024   -4.8480   53.9346 H       1  ZINC000523878927    0.0800
      9 C9        -11.7592   -3.4594   52.9816 C.3     1  ZINC000523878927    0.1400
     10 N10       -11.2870   -2.0878   53.1873 N.am    1  ZINC000523878927   -0.7400
     11 C11       -10.0457   -1.7368   52.7969 C.2     1  ZINC000523878927    0.7200
     12 O12        -9.3173   -2.5587   52.2752 O.2     1  ZINC000523878927   -0.5800
     13 N13        -9.6120   -0.4747   52.9847 N.am    1  ZINC000523878927   -0.6400
     14 C14       -10.3869    0.6174   53.6015 C.3     1  ZINC000523878927    0.1000
     15 C15        -9.3215    1.6030   54.1429 C.3     1  ZINC000523878927   -0.1400
     16 C16        -8.2331    1.5219   53.0399 C.3     1  ZINC000523878927    0.1500
     17 H17        -8.4815    2.1760   52.2042 H       1  ZINC000523878927    0.1100
     18 N18        -6.9160    1.8588   53.5858 N.am    1  ZINC000523878927   -0.7300
     19 C19        -5.9343    2.2813   52.7647 C.2     1  ZINC000523878927    0.7100
     20 O20        -6.1423    2.3845   51.5712 O.2     1  ZINC000523878927   -0.5700
     21 N21        -4.7220    2.5898   53.2666 N.am    1  ZINC000523878927   -0.6800
     22 C22        -3.7019    3.0289   52.4133 C.ar    1  ZINC000523878927    0.1500
     23 C23        -3.0110    2.1156   51.6283 C.ar    1  ZINC000523878927   -0.1200
     24 C24        -2.0056    2.5506   50.7872 C.ar    1  ZINC000523878927   -0.1300
     25 C25        -1.6862    3.8966   50.7268 C.ar    1  ZINC000523878927    0.0800
     26 F26        -0.7022    4.3202   49.9037 F       1  ZINC000523878927   -0.1400
     27 C27        -2.3744    4.8091   51.5086 C.ar    1  ZINC000523878927   -0.1300
     28 C28        -3.3840    4.3788   52.3471 C.ar    1  ZINC000523878927   -0.0900
     29 C29        -8.2854    0.0395   52.6141 C.3     1  ZINC000523878927    0.1200
     30 C30       -12.1456   -3.6440   55.4431 C.3     1  ZINC000523878927   -0.1100
     31 H31       -12.7551   -6.1105   56.4306 H       1  ZINC000523878927    0.0500
     32 H32       -14.3470   -5.7025   57.1145 H       1  ZINC000523878927    0.0500
     33 H33       -14.0716   -5.5711   55.3610 H       1  ZINC000523878927    0.0600
     34 H34       -15.1091   -3.3238   57.1731 H       1  ZINC000523878927    0.0600
     35 H35       -14.0601   -2.0371   56.5309 H       1  ZINC000523878927    0.0600
     36 H36       -15.3367   -4.2754   54.8948 H       1  ZINC000523878927    0.0700
     37 H37       -15.8797   -2.5808   54.9366 H       1  ZINC000523878927    0.0600
     38 H38       -14.4473   -3.0080   52.9580 H       1  ZINC000523878927    0.0600
     39 H39       -13.6737   -1.8527   54.0694 H       1  ZINC000523878927    0.0600
     40 H40       -10.9154   -4.1468   53.0406 H       1  ZINC000523878927    0.0700
     41 H41       -12.2253   -3.5397   51.9995 H       1  ZINC000523878927    0.0700
     42 H42       -11.8678   -1.4325   53.6045 H       1  ZINC000523878927    0.3900
     43 H43       -11.0124    1.1072   52.8551 H       1  ZINC000523878927    0.0800
     44 H44       -10.9988    0.2341   54.4180 H       1  ZINC000523878927    0.0800
     45 H45        -9.7259    2.6123   54.2191 H       1  ZINC000523878927    0.1000
     46 H46        -8.9304    1.2669   55.1031 H       1  ZINC000523878927    0.0800
     47 H47        -6.7504    1.7777   54.5380 H       1  ZINC000523878927    0.4000
     48 H48        -4.5562    2.5076   54.2188 H       1  ZINC000523878927    0.4100
     49 H49        -3.2594    1.0655   51.6757 H       1  ZINC000523878927    0.1400
     50 H50        -1.4680    1.8405   50.1764 H       1  ZINC000523878927    0.1400
     51 H51        -2.1238    5.8586   51.4600 H       1  ZINC000523878927    0.1400
     52 H52        -3.9207    5.0908   52.9564 H       1  ZINC000523878927    0.1500
     53 H53        -7.5071   -0.5222   53.1305 H       1  ZINC000523878927    0.0700
     54 H54        -8.1501   -0.0412   51.5356 H       1  ZINC000523878927    0.0800
     55 H55       -11.8257   -2.6098   55.5708 H       1  ZINC000523878927    0.0700
     56 H56       -11.2827   -4.3044   55.5291 H       1  ZINC000523878927    0.0700
@<TRIPOS>BOND
     1     1     2    1
     2     1    31    1
     3     1    32    1
     4     1    33    1
     5     2     3    1
     6     2    30    1
     7     2     4    1
     8     4     5    1
     9     4    34    1
    10     4    35    1
    11     5     6    1
    12     5    36    1
    13     5    37    1
    14     6     7    1
    15     6    38    1
    16     6    39    1
    17     7     8    1
    18     7     9    1
    19     7    30    1
    20     9    10    1
    21     9    40    1
    22     9    41    1
    23    10    11   am
    24    10    42    1
    25    11    12    2
    26    11    13   am
    27    13    29    1
    28    13    14    1
    29    14    15    1
    30    14    43    1
    31    14    44    1
    32    15    16    1
    33    15    45    1
    34    15    46    1
    35    16    17    1
    36    16    18    1
    37    16    29    1
    38    18    19   am
    39    18    47    1
    40    19    20    2
    41    19    21   am
    42    21    22    1
    43    21    48    1
    44    22    28   ar
    45    22    23   ar
    46    23    24   ar
    47    23    49    1
    48    24    25   ar
    49    24    50    1
    50    25    26    1
    51    25    27   ar
    52    27    28   ar
    53    27    51    1
    54    28    52    1
    55    29    53    1
    56    29    54    1
    57    30    55    1
    58    30    56    1
@<TRIPOS>SUBSTRUCTURE
     1 ZINC000523878927        1 TEMP              0 ****  ****    0 ROOT


##########                                Name:    ZINC000555499135
##########                DOCK_Rotatable_Bonds:                   8
##########                         Heavy_Atoms:                  26
##########                    Molecular_Weight:             377.554
##########                DOCK_Rotatable_Bonds:                   8
##########                       Formal_Charge:           0.0399999
##########                     HBond_Acceptors:                   7
##########                        HBond_Donors:                   0
##########                         Heavy_Atoms:                  26
##########                          Grid_Score:          -32.858868
##########                     Grid_vdw_energy:          -32.669147
##########                      Grid_es_energy:           -0.189719
##########           Internal_energy_repulsive:           12.440681

@<TRIPOS>MOLECULE
ZINC000555499135
 57 59 1 0 0
SMALL
USER_CHARGES


@<TRIPOS>ATOM
      1 C1         -8.7323   -1.2675   51.9554 C.3     1  ZINC000555499135   -0.1500
      2 C2         -9.6082   -0.4577   52.9135 C.3     1  ZINC000555499135   -0.0500
      3 C3        -10.6988   -1.3399   53.4642 C.2     1  ZINC000555499135   -0.2100
      4 C4        -11.8908   -0.9315   53.9095 C.2     1  ZINC000555499135    0.0300
      5 N5        -12.6731   -1.8993   54.3429 N.2     1  ZINC000555499135   -0.4500
      6 C6        -12.2075   -3.1014   54.2880 C.2     1  ZINC000555499135    0.0400
      7 C7        -12.9490   -4.3349   54.7348 C.3     1  ZINC000555499135    0.1500
      8 N8        -13.6496   -4.0553   55.9953 N.3     1  ZINC000555499135   -0.4500
      9 C9        -14.4492   -5.2118   56.4209 C.3     1  ZINC000555499135    0.0100
     10 C10       -12.7577   -3.6767   56.9860 C.2     1  ZINC000555499135    0.3500
     11 N11       -11.6514   -4.2989   57.3188 N.2     1  ZINC000555499135   -0.3100
     12 N12       -11.0686   -3.6711   58.2770 N.2     1  ZINC000555499135   -0.2900
     13 C13       -11.7628   -2.6198   58.6097 C.2     1  ZINC000555499135    0.2100
     14 C14       -11.4163   -1.6251   59.6874 C.3     1  ZINC000555499135   -0.0300
     15 C15        -9.8952   -1.5131   59.8082 C.3     1  ZINC000555499135   -0.0900
     16 C16        -9.3596   -0.6150   58.6914 C.3     1  ZINC000555499135   -0.1500
     17 C17        -9.5346   -0.9079   61.1664 C.3     1  ZINC000555499135   -0.1500
     18 N18       -12.8609   -2.5831   57.7956 N.pl3   1  ZINC000555499135   -0.4600
     19 C19       -13.9306   -1.5822   57.7980 C.3     1  ZINC000555499135    0.1100
     20 C20       -15.1155   -2.1041   58.6131 C.3     1  ZINC000555499135    0.0700
     21 H21       -15.4571   -3.0501   58.1931 H       1  ZINC000555499135    0.0700
     22 C22       -16.2558   -1.0837   58.5670 C.3     1  ZINC000555499135   -0.1500
     23 C23       -17.4149   -1.5853   59.4339 C.3     1  ZINC000555499135   -0.1200
     24 C24       -16.9060   -1.8245   60.8587 C.3     1  ZINC000555499135   -0.1600
     25 C25       -15.7405   -2.8163   60.8163 C.3     1  ZINC000555499135    0.0600
     26 O26       -14.7105   -2.3033   59.9690 O.3     1  ZINC000555499135   -0.3700
     27 S27       -10.6304   -3.0930   53.6278 S.3     1  ZINC000555499135    0.1200
     28 H28        -8.2860   -2.1052   52.4913 H       1  ZINC000555499135    0.0600
     29 H29        -9.3433   -1.6447   51.1353 H       1  ZINC000555499135    0.0600
     30 H30        -7.9435   -0.6294   51.5570 H       1  ZINC000555499135    0.0700
     31 H31        -8.9972   -0.0805   53.7334 H       1  ZINC000555499135    0.0900
     32 H32       -10.0544    0.3801   52.3776 H       1  ZINC000555499135    0.0800
     33 H33       -12.1885    0.1066   53.9138 H       1  ZINC000555499135    0.1800
     34 H34       -13.6734   -4.6198   53.9719 H       1  ZINC000555499135    0.0800
     35 H35       -12.2409   -5.1497   54.8858 H       1  ZINC000555499135    0.1200
     36 H36       -13.7855   -6.0358   56.6830 H       1  ZINC000555499135    0.0500
     37 H37       -15.0498   -4.9389   57.2886 H       1  ZINC000555499135    0.0800
     38 H38       -15.1058   -5.5190   55.6068 H       1  ZINC000555499135    0.0900
     39 H39       -11.8331   -0.6512   59.4305 H       1  ZINC000555499135    0.1000
     40 H40       -11.8327   -1.9593   60.6377 H       1  ZINC000555499135    0.1000
     41 H41        -9.4501   -2.5043   59.7224 H       1  ZINC000555499135    0.0800
     42 H42        -9.6509   -1.0250   57.7243 H       1  ZINC000555499135    0.0500
     43 H43        -9.7740    0.3872   58.8008 H       1  ZINC000555499135    0.0600
     44 H44        -8.2724   -0.5675   58.7532 H       1  ZINC000555499135    0.0600
     45 H45        -9.9162   -1.5478   61.9621 H       1  ZINC000555499135    0.0600
     46 H46        -8.4510   -0.8281   61.2525 H       1  ZINC000555499135    0.0600
     47 H47        -9.9799    0.0834   61.2522 H       1  ZINC000555499135    0.0600
     48 H48       -13.5623   -0.6580   58.2432 H       1  ZINC000555499135    0.1100
     49 H49       -14.2506   -1.3900   56.7739 H       1  ZINC000555499135    0.1200
     50 H50       -15.9031   -0.1258   58.9494 H       1  ZINC000555499135    0.0800
     51 H51       -16.5958   -0.9635   57.5384 H       1  ZINC000555499135    0.0800
     52 H52       -18.2079   -0.8377   59.4506 H       1  ZINC000555499135    0.0700
     53 H53       -17.8003   -2.5184   59.0229 H       1  ZINC000555499135    0.0600
     54 H54       -16.5664   -0.8816   61.2873 H       1  ZINC000555499135    0.0700
     55 H55       -17.7108   -2.2342   61.4690 H       1  ZINC000555499135    0.0800
     56 H56       -15.3466   -2.9575   61.8227 H       1  ZINC000555499135    0.1000
     57 H57       -16.0904   -3.7717   60.4252 H       1  ZINC000555499135    0.0500
@<TRIPOS>BOND
     1     1     2    1
     2     1    28    1
     3     1    29    1
     4     1    30    1
     5     2     3    1
     6     2    31    1
     7     2    32    1
     8     3    27    1
     9     3     4    2
    10     4     5    1
    11     4    33    1
    12     5     6    2
    13     6     7    1
    14     6    27    1
    15     7     8    1
    16     7    34    1
    17     7    35    1
    18     8     9    1
    19     8    10    1
    20     9    36    1
    21     9    37    1
    22     9    38    1
    23    10    18    1
    24    10    11    2
    25    11    12    1
    26    12    13    2
    27    13    14    1
    28    13    18    1
    29    14    15    1
    30    14    39    1
    31    14    40    1
    32    15    16    1
    33    15    17    1
    34    15    41    1
    35    16    42    1
    36    16    43    1
    37    16    44    1
    38    17    45    1
    39    17    46    1
    40    17    47    1
    41    18    19    1
    42    19    20    1
    43    19    48    1
    44    19    49    1
    45    20    21    1
    46    20    26    1
    47    20    22    1
    48    22    23    1
    49    22    50    1
    50    22    51    1
    51    23    24    1
    52    23    52    1
    53    23    53    1
    54    24    25    1
    55    24    54    1
    56    24    55    1
    57    25    26    1
    58    25    56    1
    59    25    57    1
@<TRIPOS>SUBSTRUCTURE
     1 ZINC000555499135        1 TEMP              0 ****  ****    0 ROOT


##########                                Name:    ZINC000465642058
##########                DOCK_Rotatable_Bonds:                  10
##########                         Heavy_Atoms:                  31
##########                    Molecular_Weight:             420.511
##########                DOCK_Rotatable_Bonds:                  10
##########                       Formal_Charge:          1.2666e-07
##########                     HBond_Acceptors:                   7
##########                        HBond_Donors:                   2
##########                         Heavy_Atoms:                  31
##########                          Grid_Score:          -32.837852
##########                     Grid_vdw_energy:          -34.713718
##########                      Grid_es_energy:            1.875866
##########           Internal_energy_repulsive:           12.538059

@<TRIPOS>MOLECULE
ZINC000465642058
 59 62 1 0 0
SMALL
USER_CHARGES


@<TRIPOS>ATOM
      1 C1         -1.4080    7.1965   52.4243 C.3     1  ZINC000465642058   -0.1500
      2 C2         -1.1358    5.7414   52.0376 C.3     1  ZINC000465642058    0.0500
      3 O3         -2.2669    5.2140   51.3415 O.3     1  ZINC000465642058   -0.3000
      4 C4         -2.0898    4.0425   50.6741 C.ar    1  ZINC000465642058    0.1200
      5 C5         -1.3810    4.0195   49.4813 C.ar    1  ZINC000465642058   -0.1600
      6 C6         -1.2035    2.8299   48.8100 C.ar    1  ZINC000465642058   -0.1300
      7 C7         -1.7205    1.6440   49.3143 C.ar    1  ZINC000465642058    0.0700
      8 C8         -2.4350    1.6740   50.5094 C.ar    1  ZINC000465642058   -0.0700
      9 C9         -2.6118    2.8632   51.1850 C.ar    1  ZINC000465642058   -0.1100
     10 C10        -3.3862    2.8836   52.4777 C.3     1  ZINC000465642058    0.1900
     11 N11        -4.7743    2.4917   52.2216 N.am    1  ZINC000465642058   -0.7300
     12 C12        -5.7273    2.7486   53.1393 C.2     1  ZINC000465642058    0.7100
     13 O13        -5.4347    3.3044   54.1804 O.2     1  ZINC000465642058   -0.5900
     14 N14        -7.0047    2.3896   52.9030 N.am    1  ZINC000465642058   -0.6200
     15 C15        -7.3576    1.7216   51.6478 C.3     1  ZINC000465642058    0.1900
     16 C16        -7.4020    0.2313   51.8671 C.2     1  ZINC000465642058    0.0500
     17 N17        -8.4665   -0.4692   52.1634 N.2     1  ZINC000465642058   -0.2700
     18 N18        -8.0873   -1.8125   52.2829 N.pl3   1  ZINC000465642058   -0.4700
     19 C19        -6.7608   -1.8920   52.0483 C.2     1  ZINC000465642058    0.0600
     20 C20        -6.3132   -0.6428   51.7831 C.2     1  ZINC000465642058   -0.2600
     21 C21        -8.0403    2.6673   53.9013 C.3     1  ZINC000465642058    0.1700
     22 C22        -9.2153    3.3345   53.2340 C.ar    1  ZINC000465642058   -0.1100
     23 C23       -10.3573    2.6069   52.9564 C.ar    1  ZINC000465642058   -0.0900
     24 C24       -11.4350    3.2189   52.3442 C.ar    1  ZINC000465642058   -0.1200
     25 C25       -11.3708    4.5587   52.0099 C.ar    1  ZINC000465642058   -0.1200
     26 C26       -10.2291    5.2866   52.2883 C.ar    1  ZINC000465642058   -0.1300
     27 C27        -9.1531    4.6756   52.9044 C.ar    1  ZINC000465642058   -0.1100
     28 O28        -1.4115    0.5897   48.5086 O.3     1  ZINC000465642058   -0.3000
     29 C29        -1.0555    1.0792   47.2046 C.3     1  ZINC000465642058    0.0800
     30 H30        -1.9335    1.1385   46.5614 H       1  ZINC000465642058    0.0900
     31 C31         0.0207    0.1963   46.5694 C.3     1  ZINC000465642058   -0.1500
     32 C32        -0.5023    2.4915   47.5085 C.3     1  ZINC000465642058   -0.1100
     33 H33        -2.2856    7.2431   53.0691 H       1  ZINC000465642058    0.0700
     34 H34        -0.5453    7.5988   52.9552 H       1  ZINC000465642058    0.0800
     35 H35        -1.5871    7.7843   51.5240 H       1  ZINC000465642058    0.0700
     36 H36        -0.2583    5.6949   51.3927 H       1  ZINC000465642058    0.0600
     37 H37        -0.9567    5.1536   52.9379 H       1  ZINC000465642058    0.0600
     38 H38        -0.9692    4.9336   49.0794 H       1  ZINC000465642058    0.1300
     39 H39        -2.8489    0.7609   50.9112 H       1  ZINC000465642058    0.1400
     40 H40        -2.9354    2.1848   53.1823 H       1  ZINC000465642058    0.0700
     41 H41        -3.3641    3.8888   52.8985 H       1  ZINC000465642058    0.0800
     42 H42        -5.0076    2.0473   51.3915 H       1  ZINC000465642058    0.4000
     43 H43        -8.3353    2.0689   51.3138 H       1  ZINC000465642058    0.1000
     44 H44        -6.6104    1.9552   50.8894 H       1  ZINC000465642058    0.0900
     45 H45        -8.6746   -2.5543   52.4966 H       1  ZINC000465642058    0.4400
     46 H46        -6.1640   -2.7920   52.0650 H       1  ZINC000465642058    0.1800
     47 H47        -5.2942   -0.3683   51.5534 H       1  ZINC000465642058    0.1500
     48 H48        -8.3647    1.7324   54.3582 H       1  ZINC000465642058    0.0900
     49 H49        -7.6366    3.3264   54.6700 H       1  ZINC000465642058    0.0900
     50 H50       -10.4075    1.5601   53.2175 H       1  ZINC000465642058    0.1300
     51 H51       -12.3270    2.6502   52.1266 H       1  ZINC000465642058    0.1200
     52 H52       -12.2126    5.0367   51.5310 H       1  ZINC000465642058    0.1200
     53 H53       -10.1788    6.3333   52.0269 H       1  ZINC000465642058    0.1200
     54 H54        -8.2611    5.2442   53.1220 H       1  ZINC000465642058    0.1200
     55 H55        -0.3647   -0.8161   46.4486 H       1  ZINC000465642058    0.0700
     56 H56         0.2931    0.6003   45.5944 H       1  ZINC000465642058    0.0800
     57 H57         0.9002    0.1759   47.2129 H       1  ZINC000465642058    0.0700
     58 H58        -0.7781    3.1952   46.7231 H       1  ZINC000465642058    0.0900
     59 H59         0.5789    2.4655   47.6440 H       1  ZINC000465642058    0.1000
@<TRIPOS>BOND
     1     1     2    1
     2     1    33    1
     3     1    34    1
     4     1    35    1
     5     2     3    1
     6     2    36    1
     7     2    37    1
     8     3     4    1
     9     4     9   ar
    10     4     5   ar
    11     5     6   ar
    12     5    38    1
    13     6    32    1
    14     6     7   ar
    15     7     8   ar
    16     7    28    1
    17     8     9   ar
    18     8    39    1
    19     9    10    1
    20    10    11    1
    21    10    40    1
    22    10    41    1
    23    11    12   am
    24    11    42    1
    25    12    13    2
    26    12    14   am
    27    14    15    1
    28    14    21    1
    29    15    16    1
    30    15    43    1
    31    15    44    1
    32    16    20    1
    33    16    17    2
    34    17    18    1
    35    18    19    1
    36    18    45    1
    37    19    20    2
    38    19    46    1
    39    20    47    1
    40    21    22    1
    41    21    48    1
    42    21    49    1
    43    22    27   ar
    44    22    23   ar
    45    23    24   ar
    46    23    50    1
    47    24    25   ar
    48    24    51    1
    49    25    26   ar
    50    25    52    1
    51    26    27   ar
    52    26    53    1
    53    27    54    1
    54    28    29    1
    55    29    30    1
    56    29    31    1
    57    29    32    1
    58    31    55    1
    59    31    56    1
    60    31    57    1
    61    32    58    1
    62    32    59    1
@<TRIPOS>SUBSTRUCTURE
     1 ZINC000465642058        1 TEMP              0 ****  ****    0 ROOT


##########                                Name:    ZINC000787750060
##########                DOCK_Rotatable_Bonds:                   6
##########                         Heavy_Atoms:                  24
##########                    Molecular_Weight:             347.438
##########                DOCK_Rotatable_Bonds:                   6
##########                       Formal_Charge:           0.0200003
##########                     HBond_Acceptors:                   7
##########                        HBond_Donors:                   2
##########                         Heavy_Atoms:                  24
##########                          Grid_Score:          -32.782181
##########                     Grid_vdw_energy:          -32.273567
##########                      Grid_es_energy:           -0.508615
##########           Internal_energy_repulsive:            8.752127

@<TRIPOS>MOLECULE
ZINC000787750060
 45 47 1 0 0
SMALL
USER_CHARGES


@<TRIPOS>ATOM
      1 C1          0.3943    4.7603   45.6371 C.3     1  ZINC000787750060   -0.1200
      2 C2         -0.1491    4.2764   46.9569 C.ar    1  ZINC000787750060   -0.0400
      3 C3         -0.3436    5.1754   47.9925 C.ar    1  ZINC000787750060   -0.1300
      4 C4         -0.8398    4.7440   49.2038 C.ar    1  ZINC000787750060   -0.0700
      5 C5         -1.1489    3.3946   49.3890 C.ar    1  ZINC000787750060   -0.1700
      6 C6         -1.6810    2.9260   50.6828 C.2     1  ZINC000787750060    0.5600
      7 O7         -1.1445    2.0013   51.2619 O.2     1  ZINC000787750060   -0.5200
      8 N8         -2.7619    3.5231   51.2229 N.am    1  ZINC000787750060   -0.7300
      9 C9         -3.2913    3.0567   52.5068 C.3     1  ZINC000787750060    0.2100
     10 C10        -4.4428    2.1155   52.2632 C.2     1  ZINC000787750060   -0.2800
     11 C11        -4.3807    0.9558   51.6083 C.2     1  ZINC000787750060    0.0900
     12 N12        -5.5298    0.3087   51.5265 N.2     1  ZINC000787750060   -0.5200
     13 C13        -6.5588    0.8690   52.0822 C.2     1  ZINC000787750060    0.2300
     14 N14        -7.8396    0.3393   52.0976 N.3     1  ZINC000787750060   -0.4500
     15 C15        -8.6089    0.8540   53.2397 C.3     1  ZINC000787750060    0.0200
     16 C16       -10.0318    0.2916   53.1846 C.3     1  ZINC000787750060    0.0600
     17 O17        -9.9741   -1.1373   53.1705 O.3     1  ZINC000787750060   -0.3800
     18 C18        -9.2329   -1.6727   52.0709 C.3     1  ZINC000787750060    0.0600
     19 C19        -7.8018   -1.1302   52.1147 C.3     1  ZINC000787750060    0.0300
     20 S20        -6.1037    2.3522   52.8007 S.3     1  ZINC000787750060    0.1700
     21 C21        -0.9510    2.4880   48.3382 C.ar    1  ZINC000787750060    0.1700
     22 O22        -1.2475    1.1749   48.5063 O.3     1  ZINC000787750060   -0.4700
     23 C23        -0.4554    2.9403   47.1248 C.ar    1  ZINC000787750060   -0.1200
     24 C24        -0.2404    1.9708   45.9913 C.3     1  ZINC000787750060   -0.1200
     25 H25        -0.4320    5.0550   44.9901 H       1  ZINC000787750060    0.0800
     26 H26         1.0475    5.6165   45.8050 H       1  ZINC000787750060    0.0700
     27 H27         0.9601    3.9592   45.1615 H       1  ZINC000787750060    0.0800
     28 H28        -0.1049    6.2190   47.8503 H       1  ZINC000787750060    0.1300
     29 H29        -0.9893    5.4484   50.0087 H       1  ZINC000787750060    0.1300
     30 H30        -3.1893    4.2616   50.7615 H       1  ZINC000787750060    0.4000
     31 H31        -2.5066    2.5363   53.0559 H       1  ZINC000787750060    0.0900
     32 H32        -3.6372    3.9107   53.0891 H       1  ZINC000787750060    0.0800
     33 H33        -3.4652    0.5760   51.1793 H       1  ZINC000787750060    0.1800
     34 H34        -8.1311    0.5448   54.1693 H       1  ZINC000787750060    0.0600
     35 H35        -8.6457    1.9423   53.1931 H       1  ZINC000787750060    0.1000
     36 H36       -10.5890    0.6247   54.0602 H       1  ZINC000787750060    0.1100
     37 H37       -10.5281    0.6448   52.2807 H       1  ZINC000787750060    0.0700
     38 H38        -9.2121   -2.7603   52.1410 H       1  ZINC000787750060    0.1100
     39 H39        -9.7057   -1.3766   51.1345 H       1  ZINC000787750060    0.0600
     40 H40        -7.2494   -1.4902   51.2467 H       1  ZINC000787750060    0.1000
     41 H41        -7.3111   -1.4711   53.0263 H       1  ZINC000787750060    0.0700
     42 H42        -0.7038    0.5777   47.9745 H       1  ZINC000787750060    0.4000
     43 H43        -1.1474    1.9079   45.3900 H       1  ZINC000787750060    0.0700
     44 H44         0.5849    2.3167   45.3689 H       1  ZINC000787750060    0.0700
     45 H45        -0.0032    0.9866   46.3951 H       1  ZINC000787750060    0.0800
@<TRIPOS>BOND
     1     1     2    1
     2     1    25    1
     3     1    26    1
     4     1    27    1
     5     2    23   ar
     6     2     3   ar
     7     3     4   ar
     8     3    28    1
     9     4     5   ar
    10     4    29    1
    11     5     6    1
    12     5    21   ar
    13     6     7    2
    14     6     8   am
    15     8     9    1
    16     8    30    1
    17     9    10    1
    18     9    31    1
    19     9    32    1
    20    10    20    1
    21    10    11    2
    22    11    12    1
    23    11    33    1
    24    12    13    2
    25    13    14    1
    26    13    20    1
    27    14    19    1
    28    14    15    1
    29    15    16    1
    30    15    34    1
    31    15    35    1
    32    16    17    1
    33    16    36    1
    34    16    37    1
    35    17    18    1
    36    18    19    1
    37    18    38    1
    38    18    39    1
    39    19    40    1
    40    19    41    1
    41    21    22    1
    42    21    23   ar
    43    22    42    1
    44    23    24    1
    45    24    43    1
    46    24    44    1
    47    24    45    1
@<TRIPOS>SUBSTRUCTURE
     1 ZINC000787750060        1 TEMP              0 ****  ****    0 ROOT


##########                                Name:    ZINC000492313853
##########                DOCK_Rotatable_Bonds:                   8
##########                         Heavy_Atoms:                  30
##########                    Molecular_Weight:             418.422
##########                DOCK_Rotatable_Bonds:                   8
##########                       Formal_Charge:          -0.0100008
##########                     HBond_Acceptors:                  10
##########                        HBond_Donors:                   2
##########                         Heavy_Atoms:                  30
##########                          Grid_Score:          -32.774918
##########                     Grid_vdw_energy:          -33.737968
##########                      Grid_es_energy:            0.963051
##########           Internal_energy_repulsive:           13.463603

@<TRIPOS>MOLECULE
ZINC000492313853
 51 53 1 0 0
SMALL
USER_CHARGES


@<TRIPOS>ATOM
      1 C1        -13.7872   -1.6713   55.9665 C.3     1  ZINC000492313853    0.0900
      2 N2        -13.4186   -2.4890   54.8081 N.pl3   1  ZINC000492313853   -0.6200
      3 C3        -14.3176   -3.5483   54.3435 C.3     1  ZINC000492313853    0.1000
      4 C4        -12.2158   -2.2599   54.1500 C.ar    1  ZINC000492313853    0.4100
      5 C5        -11.8743   -3.0369   53.0481 C.ar    1  ZINC000492313853   -0.2400
      6 C6        -10.6745   -2.7977   52.4022 C.ar    1  ZINC000492313853   -0.0100
      7 C7         -9.8538   -1.7858   52.8819 C.ar    1  ZINC000492313853   -0.2300
      8 C8         -8.5381   -1.4897   52.2095 C.3     1  ZINC000492313853    0.2000
      9 N9         -8.2499   -0.0568   52.3100 N.am    1  ZINC000492313853   -0.7300
     10 C10        -6.9730    0.3721   52.3546 C.2     1  ZINC000492313853    0.7100
     11 O11        -6.0602   -0.4299   52.3100 O.2     1  ZINC000492313853   -0.5600
     12 N12        -6.7078    1.6903   52.4487 N.am    1  ZINC000492313853   -0.6600
     13 C13        -5.3861    2.1342   52.4966 C.2     1  ZINC000492313853    0.3300
     14 C14        -4.3947    1.7946   51.6314 C.2     1  ZINC000492313853   -0.2600
     15 C15        -3.2229    2.4598   52.0377 C.2     1  ZINC000492313853    0.1200
     16 C16        -1.8981    2.3737   51.3743 C.ar    1  ZINC000492313853   -0.0100
     17 C17        -0.7459    2.7471   52.0626 C.ar    1  ZINC000492313853   -0.0600
     18 C18         0.4838    2.6646   51.4408 C.ar    1  ZINC000492313853   -0.1200
     19 C19         0.5732    2.2120   50.1371 C.ar    1  ZINC000492313853   -0.0700
     20 C20        -0.5677    1.8397   49.4488 C.ar    1  ZINC000492313853   -0.1900
     21 C21        -0.4624    1.3471   48.0286 C.3     1  ZINC000492313853    0.5100
     22 F22        -1.4742    0.4127   47.7828 F       1  ZINC000492313853   -0.1800
     23 F23        -0.6007    2.4263   47.1492 F       1  ZINC000492313853   -0.1800
     24 F24         0.7855    0.7448   47.8352 F       1  ZINC000492313853   -0.1800
     25 C25        -1.8016    1.9134   50.0625 C.ar    1  ZINC000492313853   -0.0400
     26 N26        -3.5056    3.1715   53.1081 N.2     1  ZINC000492313853   -0.2700
     27 N27        -4.8602    2.9884   53.4131 N.pl3   1  ZINC000492313853   -0.3900
     28 C28        -5.5817    3.6027   54.5304 C.3     1  ZINC000492313853    0.1000
     29 C29       -10.2557   -1.0532   53.9810 C.ar    1  ZINC000492313853    0.1700
     30 N30       -11.4081   -1.3001   54.5743 N.ar    1  ZINC000492313853   -0.5400
     31 H31       -13.4102   -2.1388   56.8761 H       1  ZINC000492313853    0.0600
     32 H32       -13.3528   -0.6769   55.8623 H       1  ZINC000492313853    0.0700
     33 H33       -14.8726   -1.5895   56.0229 H       1  ZINC000492313853    0.0700
     34 H34       -15.2033   -3.5776   54.9783 H       1  ZINC000492313853    0.0700
     35 H35       -14.6149   -3.3471   53.3143 H       1  ZINC000492313853    0.0600
     36 H36       -13.8037   -4.5083   54.3922 H       1  ZINC000492313853    0.0600
     37 H37       -12.5364   -3.8166   52.7016 H       1  ZINC000492313853    0.1300
     38 H38       -10.3825   -3.3853   51.5443 H       1  ZINC000492313853    0.1400
     39 H39        -7.7448   -2.0550   52.6986 H       1  ZINC000492313853    0.0800
     40 H40        -8.5942   -1.7763   51.1594 H       1  ZINC000492313853    0.0800
     41 H41        -8.9780    0.5831   52.3445 H       1  ZINC000492313853    0.4000
     42 H42        -7.4360    2.3302   52.4831 H       1  ZINC000492313853    0.4100
     43 H43        -4.4891    1.1320   50.7839 H       1  ZINC000492313853    0.1800
     44 H44        -0.8147    3.1011   53.0806 H       1  ZINC000492313853    0.1400
     45 H45         1.3776    2.9541   51.9734 H       1  ZINC000492313853    0.1400
     46 H46         1.5373    2.1491   49.6542 H       1  ZINC000492313853    0.1400
     47 H47        -2.6916    1.6225   49.5245 H       1  ZINC000492313853    0.1400
     48 H48        -6.0028    4.5559   54.2108 H       1  ZINC000492313853    0.0800
     49 H49        -6.3852    2.9402   54.8522 H       1  ZINC000492313853    0.0800
     50 H50        -4.8938    3.7691   55.3594 H       1  ZINC000492313853    0.1000
     51 H51        -9.6205   -0.2650   54.3575 H       1  ZINC000492313853    0.1600
@<TRIPOS>BOND
     1     1     2    1
     2     1    31    1
     3     1    32    1
     4     1    33    1
     5     2     3    1
     6     2     4    1
     7     3    34    1
     8     3    35    1
     9     3    36    1
    10     4    30   ar
    11     4     5   ar
    12     5     6   ar
    13     5    37    1
    14     6     7   ar
    15     6    38    1
    16     7     8    1
    17     7    29   ar
    18     8     9    1
    19     8    39    1
    20     8    40    1
    21     9    10   am
    22     9    41    1
    23    10    11    2
    24    10    12   am
    25    12    13    1
    26    12    42    1
    27    13    27    1
    28    13    14    2
    29    14    15    1
    30    14    43    1
    31    15    16    1
    32    15    26    2
    33    16    25   ar
    34    16    17   ar
    35    17    18   ar
    36    17    44    1
    37    18    19   ar
    38    18    45    1
    39    19    20   ar
    40    19    46    1
    41    20    21    1
    42    20    25   ar
    43    21    22    1
    44    21    23    1
    45    21    24    1
    46    25    47    1
    47    26    27    1
    48    27    28    1
    49    28    48    1
    50    28    49    1
    51    28    50    1
    52    29    30   ar
    53    29    51    1
@<TRIPOS>SUBSTRUCTURE
     1 ZINC000492313853        1 TEMP              0 ****  ****    0 ROOT


##########                                Name:    ZINC000547864253
##########                DOCK_Rotatable_Bonds:                   6
##########                         Heavy_Atoms:                  30
##########                    Molecular_Weight:             422.548
##########                DOCK_Rotatable_Bonds:                   6
##########                       Formal_Charge:           0.0300002
##########                     HBond_Acceptors:                   6
##########                        HBond_Donors:                   2
##########                         Heavy_Atoms:                  30
##########                          Grid_Score:          -32.765160
##########                     Grid_vdw_energy:          -30.071545
##########                      Grid_es_energy:           -2.693617
##########           Internal_energy_repulsive:           15.251074

@<TRIPOS>MOLECULE
ZINC000547864253
 56 60 1 0 0
SMALL
USER_CHARGES


@<TRIPOS>ATOM
      1 O1         -9.9206   -2.3618   52.0674 O.2     1  ZINC000547864253   -0.5300
      2 C2        -10.5492   -1.4242   52.5106 C.2     1  ZINC000547864253    0.5400
      3 N3         -9.9306   -0.2507   52.7494 N.am    1  ZINC000547864253   -0.7200
      4 C4         -8.4977   -0.1099   52.4791 C.3     1  ZINC000547864253    0.1300
      5 C5         -8.0964    1.3609   52.6088 C.3     1  ZINC000547864253    0.0200
      6 H6         -8.6247    1.9491   51.8585 H       1  ZINC000547864253    0.0900
      7 C7         -8.4568    1.8606   53.9840 C.2     1  ZINC000547864253   -0.1600
      8 C8         -7.7016    1.7690   55.0901 C.2     1  ZINC000547864253    0.0600
      9 N9         -8.3573    2.3327   56.1506 N.pl3   1  ZINC000547864253   -0.5900
     10 C10        -9.5816    2.8129   55.7426 C.ar    1  ZINC000547864253    0.1000
     11 C11       -10.6229    3.4612   56.3981 C.ar    1  ZINC000547864253   -0.1300
     12 C12       -11.7517    3.8255   55.6968 C.ar    1  ZINC000547864253   -0.1000
     13 C13       -11.8612    3.5522   54.3406 C.ar    1  ZINC000547864253   -0.1400
     14 C14       -10.8501    2.9163   53.6766 C.ar    1  ZINC000547864253   -0.0700
     15 C15        -9.6949    2.5438   54.3662 C.ar    1  ZINC000547864253   -0.1000
     16 C16        -6.6103    1.4966   52.3984 C.ar    1  ZINC000547864253   -0.0700
     17 C17        -5.8810    0.4285   51.9105 C.ar    1  ZINC000547864253   -0.1100
     18 C18        -4.5178    0.5529   51.7176 C.ar    1  ZINC000547864253   -0.1200
     19 C19        -3.8841    1.7456   52.0122 C.ar    1  ZINC000547864253   -0.1200
     20 C20        -4.6136    2.8140   52.4993 C.ar    1  ZINC000547864253   -0.1100
     21 C21        -5.9774    2.6909   52.6881 C.ar    1  ZINC000547864253   -0.1200
     22 C22       -12.0233   -1.5691   52.7886 C.3     1  ZINC000547864253   -0.1700
     23 H23       -12.6682   -1.5825   51.9100 H       1  ZINC000547864253    0.1400
     24 C24       -12.5708   -0.9117   54.0568 C.3     1  ZINC000547864253   -0.1300
     25 C25       -12.4358   -2.4354   53.9817 C.3     1  ZINC000547864253   -0.1400
     26 C26       -13.7230   -3.2499   53.8466 C.3     1  ZINC000547864253   -0.0700
     27 C27       -14.3746   -3.4168   55.2210 C.3     1  ZINC000547864253   -0.6000
     28 S28       -13.2326   -4.3028   56.3197 S.o2    1  ZINC000547864253    2.4200
     29 O29       -13.7574   -4.2723   57.6400 O.2     1  ZINC000547864253   -0.9400
     30 O30       -12.9126   -5.5544   55.7280 O.2     1  ZINC000547864253   -0.9300
     31 C31       -11.7645   -3.2365   56.2545 C.3     1  ZINC000547864253   -0.6000
     32 C32       -11.3176   -3.0838   54.7990 C.3     1  ZINC000547864253   -0.0700
     33 H33       -10.4341    0.5004   53.1001 H       1  ZINC000547864253    0.4000
     34 H34        -7.9325   -0.7053   53.1960 H       1  ZINC000547864253    0.0800
     35 H35        -8.2826   -0.4574   51.4686 H       1  ZINC000547864253    0.0700
     36 H36        -6.7218    1.3172   55.1361 H       1  ZINC000547864253    0.1700
     37 H37        -8.0112    2.3860   57.0552 H       1  ZINC000547864253    0.4200
     38 H38       -10.5472    3.6779   57.4535 H       1  ZINC000547864253    0.1200
     39 H39       -12.5593    4.3284   56.2078 H       1  ZINC000547864253    0.1300
     40 H40       -12.7529    3.8443   53.8057 H       1  ZINC000547864253    0.1200
     41 H41       -10.9425    2.7069   52.6211 H       1  ZINC000547864253    0.1200
     42 H42        -6.3761   -0.5034   51.6804 H       1  ZINC000547864253    0.1200
     43 H43        -3.9479   -0.2819   51.3371 H       1  ZINC000547864253    0.1200
     44 H44        -2.8190    1.8426   51.8621 H       1  ZINC000547864253    0.1200
     45 H45        -4.1184    3.7457   52.7297 H       1  ZINC000547864253    0.1200
     46 H46        -6.5474    3.5256   53.0686 H       1  ZINC000547864253    0.1200
     47 H47       -11.8650   -0.3743   54.6901 H       1  ZINC000547864253    0.1100
     48 H48       -13.5762   -0.4928   54.0126 H       1  ZINC000547864253    0.1100
     49 H49       -14.4118   -2.7318   53.1792 H       1  ZINC000547864253    0.0900
     50 H50       -13.4894   -4.2316   53.4344 H       1  ZINC000547864253    0.0900
     51 H51       -14.5958   -2.4355   55.6406 H       1  ZINC000547864253    0.1400
     52 H52       -15.2981   -3.9869   55.1195 H       1  ZINC000547864253    0.1400
     53 H53       -12.0076   -2.2567   56.6656 H       1  ZINC000547864253    0.1400
     54 H54       -10.9608   -3.6873   56.8368 H       1  ZINC000547864253    0.1400
     55 H55       -11.0885   -4.0658   54.3851 H       1  ZINC000547864253    0.0900
     56 H56       -10.4272   -2.4565   54.7570 H       1  ZINC000547864253    0.0900
@<TRIPOS>BOND
     1     1     2    2
     2     2     3   am
     3     2    22    1
     4     3     4    1
     5     3    33    1
     6     4     5    1
     7     4    34    1
     8     4    35    1
     9     5     6    1
    10     5     7    1
    11     5    16    1
    12     7    15    1
    13     7     8    2
    14     8     9    1
    15     8    36    1
    16     9    10    1
    17     9    37    1
    18    10    15   ar
    19    10    11   ar
    20    11    12   ar
    21    11    38    1
    22    12    13   ar
    23    12    39    1
    24    13    14   ar
    25    13    40    1
    26    14    15   ar
    27    14    41    1
    28    16    21   ar
    29    16    17   ar
    30    17    18   ar
    31    17    42    1
    32    18    19   ar
    33    18    43    1
    34    19    20   ar
    35    19    44    1
    36    20    21   ar
    37    20    45    1
    38    21    46    1
    39    22    23    1
    40    22    25    1
    41    22    24    1
    42    24    25    1
    43    24    47    1
    44    24    48    1
    45    25    32    1
    46    25    26    1
    47    26    27    1
    48    26    49    1
    49    26    50    1
    50    27    28    1
    51    27    51    1
    52    27    52    1
    53    28    29    2
    54    28    30    2
    55    28    31    1
    56    31    32    1
    57    31    53    1
    58    31    54    1
    59    32    55    1
    60    32    56    1
@<TRIPOS>SUBSTRUCTURE
     1 ZINC000547864253        1 TEMP              0 ****  ****    0 ROOT


##########                                Name:    ZINC000151303733
##########                DOCK_Rotatable_Bonds:                   7
##########                         Heavy_Atoms:                  26
##########                    Molecular_Weight:             369.444
##########                DOCK_Rotatable_Bonds:                   7
##########                       Formal_Charge:        -1.93715e-07
##########                     HBond_Acceptors:                   7
##########                        HBond_Donors:                   2
##########                         Heavy_Atoms:                  26
##########                          Grid_Score:          -32.761497
##########                     Grid_vdw_energy:          -32.184490
##########                      Grid_es_energy:           -0.577007
##########           Internal_energy_repulsive:           62.576630

@<TRIPOS>MOLECULE
ZINC000151303733
 45 48 1 0 0
SMALL
USER_CHARGES


@<TRIPOS>ATOM
      1 C1         -8.3463    2.1370   54.7579 C.3     1  ZINC000151303733   -0.1000
      2 C2         -7.4428    1.6566   53.6515 C.2     1  ZINC000151303733   -0.1200
      3 C3         -6.3162    2.2885   53.3197 C.2     1  ZINC000151303733   -0.2000
      4 S4         -5.5305    1.4428   51.9930 S.3     1  ZINC000151303733    0.1200
      5 C5         -6.8127    0.2395   51.9582 C.2     1  ZINC000151303733   -0.2400
      6 C6         -7.7169    0.5197   52.9039 C.2     1  ZINC000151303733    0.1200
      7 N7         -8.8613   -0.2709   53.1173 N.am    1  ZINC000151303733   -0.6400
      8 C8         -9.0725   -1.3681   52.3637 C.2     1  ZINC000151303733    0.5100
      9 O9         -8.2760   -1.6742   51.5014 O.2     1  ZINC000151303733   -0.5100
     10 C10       -10.2981   -2.2147   52.5922 C.3     1  ZINC000151303733    0.1000
     11 N11       -10.6394   -2.2053   54.0168 N.am    1  ZINC000151303733   -0.7100
     12 C12       -11.9307   -2.2487   54.4008 C.2     1  ZINC000151303733    0.5200
     13 O13       -12.8100   -2.2942   53.5667 O.2     1  ZINC000151303733   -0.5100
     14 C14       -12.2817   -2.2408   55.8662 C.3     1  ZINC000151303733    0.1600
     15 H15       -13.2762   -1.8187   56.0105 H       1  ZINC000151303733    0.1300
     16 C16       -11.2623   -1.4420   56.6391 C.ar    1  ZINC000151303733   -0.0900
     17 C17       -10.8603   -0.1276   56.5891 C.ar    1  ZINC000151303733   -0.0900
     18 C18        -9.8741    0.3274   57.4488 C.ar    1  ZINC000151303733   -0.0800
     19 C19        -9.2916   -0.5369   58.3586 C.ar    1  ZINC000151303733   -0.1200
     20 C20        -9.6876   -1.8573   58.4170 C.ar    1  ZINC000151303733   -0.0400
     21 C21       -10.6807   -2.3232   57.5540 C.ar    1  ZINC000151303733   -0.1500
     22 C22       -11.3038   -3.6492   57.3792 C.2     1  ZINC000151303733    0.5600
     23 O23       -11.0210   -4.6400   58.0239 O.2     1  ZINC000151303733   -0.5100
     24 N24       -12.2300   -3.6050   56.4044 N.am    1  ZINC000151303733   -0.5700
     25 C25       -13.0503   -4.7326   55.9550 C.3     1  ZINC000151303733    0.0900
     26 C26       -13.9768   -5.3859   56.9827 C.3     1  ZINC000151303733   -0.1800
     27 C27       -14.5625   -4.5160   55.8687 C.3     1  ZINC000151303733   -0.1900
     28 H28        -8.0402    1.6823   55.7001 H       1  ZINC000151303733    0.0700
     29 H29        -8.2770    3.2217   54.8385 H       1  ZINC000151303733    0.0700
     30 H30        -9.3751    1.8541   54.5354 H       1  ZINC000151303733    0.0600
     31 H31        -5.9431    3.1843   53.7937 H       1  ZINC000151303733    0.1700
     32 H32        -6.8606   -0.5997   51.2801 H       1  ZINC000151303733    0.2000
     33 H33        -9.4983   -0.0260   53.8066 H       1  ZINC000151303733    0.4200
     34 H34       -11.1309   -1.8111   52.0164 H       1  ZINC000151303733    0.1100
     35 H35       -10.0977   -3.2376   52.2734 H       1  ZINC000151303733    0.1100
     36 H36        -9.9362   -2.1677   54.6838 H       1  ZINC000151303733    0.4100
     37 H37       -11.3129    0.5493   55.8796 H       1  ZINC000151303733    0.1300
     38 H38        -9.5588    1.3595   57.4085 H       1  ZINC000151303733    0.1400
     39 H39        -8.5230   -0.1762   59.0261 H       1  ZINC000151303733    0.1400
     40 H40        -9.2305   -2.5286   59.1291 H       1  ZINC000151303733    0.1400
     41 H41       -12.5911   -5.3798   55.2078 H       1  ZINC000151303733    0.1400
     42 H42       -14.1270   -6.4632   56.9116 H       1  ZINC000151303733    0.1000
     43 H43       -13.9759   -4.9768   57.9929 H       1  ZINC000151303733    0.1300
     44 H44       -14.9469   -3.5345   56.1460 H       1  ZINC000151303733    0.1000
     45 H45       -15.0981   -5.0209   55.0647 H       1  ZINC000151303733    0.1000
@<TRIPOS>BOND
     1     1     2    1
     2     1    28    1
     3     1    29    1
     4     1    30    1
     5     2     6    1
     6     2     3    2
     7     3     4    1
     8     3    31    1
     9     4     5    1
    10     5     6    2
    11     5    32    1
    12     6     7    1
    13     7     8   am
    14     7    33    1
    15     8     9    2
    16     8    10    1
    17    10    11    1
    18    10    34    1
    19    10    35    1
    20    11    12   am
    21    11    36    1
    22    12    13    2
    23    12    14    1
    24    14    15    1
    25    14    24    1
    26    14    16    1
    27    16    21   ar
    28    16    17   ar
    29    17    18   ar
    30    17    37    1
    31    18    19   ar
    32    18    38    1
    33    19    20   ar
    34    19    39    1
    35    20    21   ar
    36    20    40    1
    37    21    22    1
    38    22    23    2
    39    22    24   am
    40    24    25    1
    41    25    27    1
    42    25    26    1
    43    25    41    1
    44    26    27    1
    45    26    42    1
    46    26    43    1
    47    27    44    1
    48    27    45    1
@<TRIPOS>SUBSTRUCTURE
     1 ZINC000151303733        1 TEMP              0 ****  ****    0 ROOT


##########                                Name:    ZINC000279331220
##########                DOCK_Rotatable_Bonds:                   9
##########                         Heavy_Atoms:                  24
##########                    Molecular_Weight:             328.411
##########                DOCK_Rotatable_Bonds:                   9
##########                       Formal_Charge:          -0.0100001
##########                     HBond_Acceptors:                   5
##########                        HBond_Donors:                   0
##########                         Heavy_Atoms:                  24
##########                          Grid_Score:          -32.743057
##########                     Grid_vdw_energy:          -31.774326
##########                      Grid_es_energy:           -0.968731
##########           Internal_energy_repulsive:           19.632296

@<TRIPOS>MOLECULE
ZINC000279331220
 48 49 1 0 0
SMALL
USER_CHARGES


@<TRIPOS>ATOM
      1 C1         -0.9096    0.1961   47.0884 C.3     1  ZINC000279331220   -0.1500
      2 C2         -0.6990    1.3172   48.1080 C.3     1  ZINC000279331220    0.0500
      3 O3         -1.7853    1.3268   49.0364 O.3     1  ZINC000279331220   -0.3000
      4 C4         -1.7723    2.2944   49.9920 C.ar    1  ZINC000279331220    0.1000
      5 C5         -0.7383    3.2154   50.0331 C.ar    1  ZINC000279331220   -0.1700
      6 C6         -0.7268    4.1989   51.0051 C.ar    1  ZINC000279331220   -0.1200
      7 C7         -1.7451    4.2656   51.9373 C.ar    1  ZINC000279331220   -0.1200
      8 C8         -2.7800    3.3490   51.9021 C.ar    1  ZINC000279331220   -0.1700
      9 C9         -2.8008    2.3650   50.9272 C.ar    1  ZINC000279331220    0.1000
     10 O10        -3.8177    1.4629   50.8912 O.3     1  ZINC000279331220   -0.3000
     11 C11        -4.8809    1.6458   51.8284 C.3     1  ZINC000279331220    0.0600
     12 C12        -5.9814    0.6180   51.5583 C.3     1  ZINC000279331220   -0.1100
     13 C13        -7.1161    0.8088   52.5666 C.3     1  ZINC000279331220   -0.1300
     14 C14        -8.1882   -0.2205   52.3173 C.2     1  ZINC000279331220    0.5200
     15 O15        -8.0514   -1.0359   51.4301 O.2     1  ZINC000279331220   -0.5200
     16 N16        -9.2991   -0.2350   53.0802 N.am    1  ZINC000279331220   -0.5700
     17 C17        -9.4653    0.7512   54.1508 C.3     1  ZINC000279331220    0.0800
     18 C18       -10.2901   -1.1882   52.8506 C.ar    1  ZINC000279331220    0.3400
     19 N19       -10.0972   -2.4400   53.2341 N.ar    1  ZINC000279331220   -0.4800
     20 C20       -11.0090   -3.3729   53.0360 C.ar    1  ZINC000279331220    0.1100
     21 C21       -12.2059   -3.0728   52.4167 C.ar    1  ZINC000279331220   -0.1600
     22 C22       -12.4474   -1.7709   51.9991 C.ar    1  ZINC000279331220   -0.0700
     23 C23       -11.4745   -0.8136   52.2258 C.ar    1  ZINC000279331220   -0.1200
     24 C24       -11.6907    0.6130   51.7913 C.3     1  ZINC000279331220   -0.1100
     25 H25        -0.0810    0.1888   46.3802 H       1  ZINC000279331220    0.0800
     26 H26        -0.9536   -0.7622   47.6060 H       1  ZINC000279331220    0.0700
     27 H27        -1.8440    0.3630   46.5525 H       1  ZINC000279331220    0.0700
     28 H28         0.2354    1.1503   48.6438 H       1  ZINC000279331220    0.0600
     29 H29        -0.6549    2.2756   47.5905 H       1  ZINC000279331220    0.0600
     30 H30         0.0589    3.1651   49.3063 H       1  ZINC000279331220    0.1300
     31 H31         0.0798    4.9164   51.0361 H       1  ZINC000279331220    0.1300
     32 H32        -1.7324    5.0351   52.6950 H       1  ZINC000279331220    0.1300
     33 H33        -3.5741    3.4029   52.6320 H       1  ZINC000279331220    0.1300
     34 H34        -4.4997    1.5126   52.8408 H       1  ZINC000279331220    0.0600
     35 H35        -5.2889    2.6511   51.7232 H       1  ZINC000279331220    0.0600
     36 H36        -6.3665    0.7548   50.5478 H       1  ZINC000279331220    0.0800
     37 H37        -5.5720   -0.3873   51.6580 H       1  ZINC000279331220    0.0800
     38 H38        -6.7272    0.6907   53.5780 H       1  ZINC000279331220    0.1000
     39 H39        -7.5381    1.8075   52.4540 H       1  ZINC000279331220    0.1000
     40 H40        -9.8827    1.6694   53.7374 H       1  ZINC000279331220    0.0700
     41 H41       -10.1405    0.3543   54.9088 H       1  ZINC000279331220    0.0800
     42 H42        -8.4965    0.9637   54.6026 H       1  ZINC000279331220    0.0800
     43 H43       -10.8164   -4.3843   53.3622 H       1  ZINC000279331220    0.1600
     44 H44       -12.9464   -3.8428   52.2583 H       1  ZINC000279331220    0.1400
     45 H45       -13.3756   -1.5103   51.5122 H       1  ZINC000279331220    0.1400
     46 H46       -12.0821    1.1923   52.6276 H       1  ZINC000279331220    0.0800
     47 H47       -10.7429    1.0410   51.4649 H       1  ZINC000279331220    0.0700
     48 H48       -12.4036    0.6377   50.9671 H       1  ZINC000279331220    0.0700
@<TRIPOS>BOND
     1     1     2    1
     2     1    25    1
     3     1    26    1
     4     1    27    1
     5     2     3    1
     6     2    28    1
     7     2    29    1
     8     3     4    1
     9     4     9   ar
    10     4     5   ar
    11     5     6   ar
    12     5    30    1
    13     6     7   ar
    14     6    31    1
    15     7     8   ar
    16     7    32    1
    17     8     9   ar
    18     8    33    1
    19     9    10    1
    20    10    11    1
    21    11    12    1
    22    11    34    1
    23    11    35    1
    24    12    13    1
    25    12    36    1
    26    12    37    1
    27    13    14    1
    28    13    38    1
    29    13    39    1
    30    14    15    2
    31    14    16   am
    32    16    17    1
    33    16    18    1
    34    17    40    1
    35    17    41    1
    36    17    42    1
    37    18    23   ar
    38    18    19   ar
    39    19    20   ar
    40    20    21   ar
    41    20    43    1
    42    21    22   ar
    43    21    44    1
    44    22    23   ar
    45    22    45    1
    46    23    24    1
    47    24    46    1
    48    24    47    1
    49    24    48    1
@<TRIPOS>SUBSTRUCTURE
     1 ZINC000279331220        1 TEMP              0 ****  ****    0 ROOT


##########                                Name:    ZINC000642096826
##########                DOCK_Rotatable_Bonds:                  12
##########                         Heavy_Atoms:                  25
##########                    Molecular_Weight:             345.485
##########                DOCK_Rotatable_Bonds:                  12
##########                       Formal_Charge:          0.00999919
##########                     HBond_Acceptors:                   5
##########                        HBond_Donors:                   1
##########                         Heavy_Atoms:                  25
##########                          Grid_Score:          -32.721573
##########                     Grid_vdw_energy:          -30.710615
##########                      Grid_es_energy:           -2.010957
##########           Internal_energy_repulsive:           20.086843

@<TRIPOS>MOLECULE
ZINC000642096826
 56 57 1 0 0
SMALL
USER_CHARGES


@<TRIPOS>ATOM
      1 C1         -7.6704   -1.1965   51.8683 C.3     1  ZINC000642096826   -0.1500
      2 C2         -6.8697   -0.0493   52.4879 C.3     1  ZINC000642096826   -0.1400
      3 C3         -7.8253    0.9226   53.1829 C.3     1  ZINC000642096826    0.1200
      4 N4         -7.0541    1.8792   53.9806 N.am    1  ZINC000642096826   -0.6200
      5 C5         -7.1360    1.8474   55.4430 C.3     1  ZINC000642096826    0.1100
      6 C6         -8.5653    2.1731   55.8811 C.3     1  ZINC000642096826   -0.1400
      7 C7         -8.9328    3.5832   55.4149 C.3     1  ZINC000642096826   -0.1500
      8 C8         -6.2691    2.7883   53.3693 C.2     1  ZINC000642096826    0.5200
      9 O9         -6.2025    2.8156   52.1587 O.2     1  ZINC000642096826   -0.5200
     10 C10        -5.4744    3.7711   54.1901 C.3     1  ZINC000642096826    0.0400
     11 N11        -4.6383    4.5884   53.3009 N.3     1  ZINC000642096826   -0.5200
     12 C12        -4.8354    6.0205   53.5623 C.3     1  ZINC000642096826    0.0100
     13 C13        -3.2215    4.2207   53.4253 C.3     1  ZINC000642096826    0.0900
     14 C14        -2.7007    3.7673   52.0858 C.ar    1  ZINC000642096826   -0.0500
     15 C15        -2.5001    4.6917   51.0761 C.ar    1  ZINC000642096826   -0.1000
     16 C16        -2.0241    4.2833   49.8474 C.ar    1  ZINC000642096826   -0.0600
     17 C17        -1.7443    2.9341   49.6242 C.ar    1  ZINC000642096826   -0.1400
     18 C18        -1.2334    2.4894   48.3101 C.2     1  ZINC000642096826    0.5600
     19 O19        -0.7892    3.3028   47.5237 O.2     1  ZINC000642096826   -0.5300
     20 N20        -1.2602    1.1819   47.9841 N.am    1  ZINC000642096826   -0.7000
     21 C21        -0.7555    0.7414   46.6812 C.3     1  ZINC000642096826    0.0800
     22 C22         0.3943   -0.2680   46.6734 C.3     1  ZINC000642096826   -0.1900
     23 C23        -1.0155   -0.7113   46.2773 C.3     1  ZINC000642096826   -0.1900
     24 C24        -1.9485    2.0068   50.6472 C.ar    1  ZINC000642096826   -0.0900
     25 C25        -2.4200    2.4294   51.8729 C.ar    1  ZINC000642096826   -0.1200
     26 H26        -8.2174   -1.7220   52.6511 H       1  ZINC000642096826    0.0600
     27 H27        -8.3746   -0.7957   51.1393 H       1  ZINC000642096826    0.0600
     28 H28        -6.9896   -1.8888   51.3732 H       1  ZINC000642096826    0.0600
     29 H29        -6.1654   -0.4501   53.2169 H       1  ZINC000642096826    0.0600
     30 H30        -6.3227    0.4763   51.7052 H       1  ZINC000642096826    0.0600
     31 H31        -8.4061    1.4597   52.4330 H       1  ZINC000642096826    0.0800
     32 H32        -8.4992    0.3661   53.8343 H       1  ZINC000642096826    0.0800
     33 H33        -6.8637    0.8544   55.8007 H       1  ZINC000642096826    0.0800
     34 H34        -6.4508    2.5847   55.8614 H       1  ZINC000642096826    0.0800
     35 H35        -9.2538    1.4532   55.4386 H       1  ZINC000642096826    0.0700
     36 H36        -8.6333    2.1203   56.9676 H       1  ZINC000642096826    0.0700
     37 H37        -9.9511    3.8152   55.7271 H       1  ZINC000642096826    0.0600
     38 H38        -8.2442    4.3031   55.8575 H       1  ZINC000642096826    0.0600
     39 H39        -8.8649    3.6359   54.3283 H       1  ZINC000642096826    0.0600
     40 H40        -6.1559    4.4172   54.7434 H       1  ZINC000642096826    0.0600
     41 H41        -4.8385    3.2292   54.8902 H       1  ZINC000642096826    0.1000
     42 H42        -4.5669    6.2416   54.5953 H       1  ZINC000642096826    0.0200
     43 H43        -4.2047    6.6027   52.8904 H       1  ZINC000642096826    0.0700
     44 H44        -5.8807    6.2799   53.3951 H       1  ZINC000642096826    0.0900
     45 H45        -2.6502    5.0850   53.7637 H       1  ZINC000642096826    0.0500
     46 H46        -3.1184    3.4113   54.1481 H       1  ZINC000642096826    0.0900
     47 H47        -2.7170    5.7353   51.2500 H       1  ZINC000642096826    0.1300
     48 H48        -1.8686    5.0057   49.0598 H       1  ZINC000642096826    0.1400
     49 H49        -1.6135    0.5326   48.6121 H       1  ZINC000642096826    0.4000
     50 H50        -0.7708    1.4934   45.8923 H       1  ZINC000642096826    0.1400
     51 H51         1.1359   -0.1800   45.8795 H       1  ZINC000642096826    0.1000
     52 H52         0.7754   -0.6042   47.6377 H       1  ZINC000642096826    0.1000
     53 H53        -1.5619   -1.3393   46.9812 H       1  ZINC000642096826    0.1000
     54 H54        -1.2014   -0.9151   45.2228 H       1  ZINC000642096826    0.1100
     55 H55        -1.7342    0.9615   50.4808 H       1  ZINC000642096826    0.1200
     56 H56        -2.5781    1.7129   52.6655 H       1  ZINC000642096826    0.1300
@<TRIPOS>BOND
     1     1     2    1
     2     1    26    1
     3     1    27    1
     4     1    28    1
     5     2     3    1
     6     2    29    1
     7     2    30    1
     8     3     4    1
     9     3    31    1
    10     3    32    1
    11     4     5    1
    12     4     8   am
    13     5     6    1
    14     5    33    1
    15     5    34    1
    16     6     7    1
    17     6    35    1
    18     6    36    1
    19     7    37    1
    20     7    38    1
    21     7    39    1
    22     8     9    2
    23     8    10    1
    24    10    11    1
    25    10    40    1
    26    10    41    1
    27    11    12    1
    28    11    13    1
    29    12    42    1
    30    12    43    1
    31    12    44    1
    32    13    14    1
    33    13    45    1
    34    13    46    1
    35    14    25   ar
    36    14    15   ar
    37    15    16   ar
    38    15    47    1
    39    16    17   ar
    40    16    48    1
    41    17    18    1
    42    17    24   ar
    43    18    19    2
    44    18    20   am
    45    20    21    1
    46    20    49    1
    47    21    23    1
    48    21    22    1
    49    21    50    1
    50    22    23    1
    51    22    51    1
    52    22    52    1
    53    23    53    1
    54    23    54    1
    55    24    25   ar
    56    24    55    1
    57    25    56    1
@<TRIPOS>SUBSTRUCTURE
     1 ZINC000642096826        1 TEMP              0 ****  ****    0 ROOT


##########                                Name:    ZINC000518242403
##########                DOCK_Rotatable_Bonds:                   6
##########                         Heavy_Atoms:                  27
##########                    Molecular_Weight:             370.405
##########                DOCK_Rotatable_Bonds:                   6
##########                       Formal_Charge:          -0.0200004
##########                     HBond_Acceptors:                   7
##########                        HBond_Donors:                   1
##########                         Heavy_Atoms:                  27
##########                          Grid_Score:          -32.717419
##########                     Grid_vdw_energy:          -29.995701
##########                      Grid_es_energy:           -2.721718
##########           Internal_energy_repulsive:           11.748448

@<TRIPOS>MOLECULE
ZINC000518242403
 49 52 1 0 0
SMALL
USER_CHARGES


@<TRIPOS>ATOM
      1 C1         -7.8357    5.8296   54.5101 C.3     1  ZINC000518242403   -0.1800
      2 C2         -7.0044    5.1938   53.3941 C.3     1  ZINC000518242403    0.1000
      3 N3         -6.6484    3.8235   53.7706 N.am    1  ZINC000518242403   -0.6200
      4 C4         -5.4924    3.5785   54.6365 C.3     1  ZINC000518242403    0.1500
      5 C5         -4.2039    3.7984   53.8413 C.3     1  ZINC000518242403    0.0300
      6 H6         -4.2324    4.7749   53.3579 H       1  ZINC000518242403    0.0900
      7 C7         -2.9949    3.7229   54.7837 C.3     1  ZINC000518242403    0.0300
      8 O8         -1.8082    3.9185   54.0070 O.3     1  ZINC000518242403   -0.3000
      9 C9         -1.7159    3.2175   52.8441 C.ar    1  ZINC000518242403    0.0500
     10 C10        -0.4795    3.0711   52.2339 C.ar    1  ZINC000518242403   -0.1100
     11 C11        -0.3705    2.3645   51.0507 C.ar    1  ZINC000518242403   -0.1200
     12 C12        -1.4930    1.8020   50.4730 C.ar    1  ZINC000518242403   -0.1200
     13 C13        -2.7285    1.9429   51.0770 C.ar    1  ZINC000518242403   -0.1100
     14 C14        -2.8447    2.6494   52.2645 C.ar    1  ZINC000518242403    0.0500
     15 O15        -4.0666    2.7733   52.8512 O.3     1  ZINC000518242403   -0.3000
     16 C16        -7.3845    2.7882   53.3204 C.2     1  ZINC000518242403    0.7100
     17 O17        -8.3432    2.9913   52.6004 O.2     1  ZINC000518242403   -0.5700
     18 N18        -7.0581    1.5276   53.6681 N.am    1  ZINC000518242403   -0.6800
     19 C19        -7.8235    0.4511   53.2000 C.ar    1  ZINC000518242403    0.1700
     20 C20        -9.1041    0.2438   53.6931 C.ar    1  ZINC000518242403   -0.1000
     21 C21        -9.8603   -0.8201   53.2298 C.ar    1  ZINC000518242403    0.0500
     22 C22        -9.3333   -1.6801   52.2694 C.ar    1  ZINC000518242403    0.0200
     23 C23        -8.0542   -1.4701   51.7803 C.ar    1  ZINC000518242403   -0.0800
     24 C24        -7.3028   -0.4048   52.2387 C.ar    1  ZINC000518242403   -0.1000
     25 C25        -5.9118   -0.1795   51.7044 C.3     1  ZINC000518242403   -0.1100
     26 O26       -10.2654   -2.6366   51.9824 O.3     1  ZINC000518242403   -0.3100
     27 C27       -11.2073   -2.5941   53.0705 C.3     1  ZINC000518242403    0.2100
     28 O28       -11.1215   -1.2372   53.5442 O.3     1  ZINC000518242403   -0.3100
     29 H29        -8.7443    5.2472   54.6633 H       1  ZINC000518242403    0.0600
     30 H30        -7.2545    5.8455   55.4321 H       1  ZINC000518242403    0.0600
     31 H31        -8.1007    6.8492   54.2299 H       1  ZINC000518242403    0.0700
     32 H32        -7.5858    5.1779   52.4721 H       1  ZINC000518242403    0.1000
     33 H33        -6.0960    5.7762   53.2408 H       1  ZINC000518242403    0.0700
     34 H34        -5.5194    4.2661   55.4818 H       1  ZINC000518242403    0.1100
     35 H35        -5.5231    2.5520   55.0019 H       1  ZINC000518242403    0.0900
     36 H36        -3.0707    4.5022   55.5420 H       1  ZINC000518242403    0.1300
     37 H37        -2.9633    2.7445   55.2632 H       1  ZINC000518242403    0.0800
     38 H38         0.3992    3.5098   52.6832 H       1  ZINC000518242403    0.1300
     39 H39         0.5935    2.2515   50.5771 H       1  ZINC000518242403    0.1300
     40 H40        -1.4049    1.2517   49.5480 H       1  ZINC000518242403    0.1300
     41 H41        -3.6041    1.5024   50.6236 H       1  ZINC000518242403    0.1300
     42 H42        -6.2933    1.3655   54.2424 H       1  ZINC000518242403    0.4100
     43 H43        -9.5108    0.9116   54.4381 H       1  ZINC000518242403    0.1500
     44 H44        -7.6456   -2.1369   51.0355 H       1  ZINC000518242403    0.1400
     45 H45        -5.9596    0.4668   50.8280 H       1  ZINC000518242403    0.0800
     46 H46        -5.3000    0.2941   52.4722 H       1  ZINC000518242403    0.0700
     47 H47        -5.4700   -1.1364   51.4266 H       1  ZINC000518242403    0.0800
     48 H48       -12.2140   -2.8125   52.7144 H       1  ZINC000518242403    0.1300
     49 H49       -10.9176   -3.2928   53.8554 H       1  ZINC000518242403    0.0900
@<TRIPOS>BOND
     1     1     2    1
     2     1    29    1
     3     1    30    1
     4     1    31    1
     5     2     3    1
     6     2    32    1
     7     2    33    1
     8     3     4    1
     9     3    16   am
    10     4     5    1
    11     4    34    1
    12     4    35    1
    13     5     6    1
    14     5    15    1
    15     5     7    1
    16     7     8    1
    17     7    36    1
    18     7    37    1
    19     8     9    1
    20     9    14   ar
    21     9    10   ar
    22    10    11   ar
    23    10    38    1
    24    11    12   ar
    25    11    39    1
    26    12    13   ar
    27    12    40    1
    28    13    14   ar
    29    13    41    1
    30    14    15    1
    31    16    17    2
    32    16    18   am
    33    18    19    1
    34    18    42    1
    35    19    24   ar
    36    19    20   ar
    37    20    21   ar
    38    20    43    1
    39    21    28    1
    40    21    22   ar
    41    22    23   ar
    42    22    26    1
    43    23    24   ar
    44    23    44    1
    45    24    25    1
    46    25    45    1
    47    25    46    1
    48    25    47    1
    49    26    27    1
    50    27    28    1
    51    27    48    1
    52    27    49    1
@<TRIPOS>SUBSTRUCTURE
     1 ZINC000518242403        1 TEMP              0 ****  ****    0 ROOT


##########                                Name:    ZINC000479580180
##########                DOCK_Rotatable_Bonds:                   5
##########                         Heavy_Atoms:                  30
##########                    Molecular_Weight:             404.444
##########                DOCK_Rotatable_Bonds:                   5
##########                       Formal_Charge:           0.0299995
##########                     HBond_Acceptors:                   7
##########                        HBond_Donors:                   1
##########                         Heavy_Atoms:                  30
##########                          Grid_Score:          -32.691341
##########                     Grid_vdw_energy:          -33.382389
##########                      Grid_es_energy:            0.691049
##########           Internal_energy_repulsive:           16.002003

@<TRIPOS>MOLECULE
ZINC000479580180
 51 55 1 0 0
SMALL
USER_CHARGES


@<TRIPOS>ATOM
      1 O1        -12.9569   -4.7437   56.3822 O.2     1  ZINC000479580180   -0.5200
      2 C2        -12.8112   -3.5421   56.4592 C.2     1  ZINC000479580180    0.5200
      3 C3        -13.0188   -2.8408   57.7768 C.3     1  ZINC000479580180   -0.0700
      4 C4        -11.6809   -2.4980   58.3797 C.2     1  ZINC000479580180   -0.1600
      5 C5        -10.6551   -3.3338   58.5894 C.2     1  ZINC000479580180    0.0300
      6 O6         -9.6244   -2.6724   59.1452 O.3     1  ZINC000479580180   -0.1900
      7 C7         -9.9289   -1.3715   59.3249 C.ar    1  ZINC000479580180    0.0800
      8 C8         -9.2311   -0.2900   59.8468 C.ar    1  ZINC000479580180   -0.1400
      9 C9         -9.8301    0.9531   59.8978 C.ar    1  ZINC000479580180    0.1300
     10 F10        -9.1491    2.0037   60.4056 F       1  ZINC000479580180   -0.1300
     11 C11       -11.1261    1.1340   59.4318 C.ar    1  ZINC000479580180   -0.1600
     12 C12       -11.8287    0.0807   58.9150 C.ar    1  ZINC000479580180   -0.0400
     13 C13       -11.2373   -1.1795   58.8494 C.ar    1  ZINC000479580180   -0.1200
     14 N14       -12.4581   -2.8347   55.3677 N.am    1  ZINC000479580180   -0.6200
     15 C15       -12.2662   -1.3803   55.4480 C.3     1  ZINC000479580180    0.1100
     16 C16       -10.8796   -1.0348   54.8959 C.3     1  ZINC000479580180   -0.1300
     17 C17       -10.7387   -1.6104   53.4848 C.3     1  ZINC000479580180   -0.0100
     18 C18        -9.3885   -1.2432   52.9253 C.2     1  ZINC000479580180    0.3000
     19 N19        -8.7271   -0.1454   53.1804 N.2     1  ZINC000479580180   -0.5300
     20 C20        -7.5651   -0.1508   52.5134 C.2     1  ZINC000479580180    0.2700
     21 C21        -6.5421    0.9238   52.5492 C.ar    1  ZINC000479580180   -0.0200
     22 C22        -5.3901    0.8184   51.7726 C.ar    1  ZINC000479580180   -0.0800
     23 C23        -4.4422    1.8209   51.8094 C.ar    1  ZINC000479580180   -0.1300
     24 C24        -4.6339    2.9284   52.6155 C.ar    1  ZINC000479580180   -0.1000
     25 C25        -5.7758    3.0379   53.3885 C.ar    1  ZINC000479580180   -0.1200
     26 C26        -6.7329    2.0442   53.3551 C.ar    1  ZINC000479580180   -0.0800
     27 N27        -7.4810   -1.2663   51.8223 N.2     1  ZINC000479580180   -0.3000
     28 N28        -8.6550   -1.9919   52.0821 N.pl3   1  ZINC000479580180   -0.4800
     29 C29       -10.8715   -3.1341   53.5381 C.3     1  ZINC000479580180   -0.1400
     30 C30       -12.2521   -3.5042   54.0761 C.3     1  ZINC000479580180    0.1200
     31 H31       -13.5898   -1.9263   57.6158 H       1  ZINC000479580180    0.1100
     32 H32       -13.5657   -3.4959   58.4549 H       1  ZINC000479580180    0.1100
     33 H33       -10.6558   -4.3863   58.3473 H       1  ZINC000479580180    0.2100
     34 H34        -8.2231   -0.4210   60.2118 H       1  ZINC000479580180    0.1500
     35 H35       -11.5816    2.1121   59.4781 H       1  ZINC000479580180    0.1400
     36 H36       -12.8363    0.2260   58.5544 H       1  ZINC000479580180    0.1300
     37 H37       -13.0309   -0.8775   54.8560 H       1  ZINC000479580180    0.0800
     38 H38       -12.3360   -1.0593   56.4873 H       1  ZINC000479580180    0.0900
     39 H39       -10.7617    0.0483   54.8604 H       1  ZINC000479580180    0.0900
     40 H40       -10.1135   -1.4636   55.5419 H       1  ZINC000479580180    0.0700
     41 H41       -11.5205   -1.2000   52.8456 H       1  ZINC000479580180    0.1200
     42 H42        -5.2391   -0.0462   51.1433 H       1  ZINC000479580180    0.1400
     43 H43        -3.5489    1.7403   51.2078 H       1  ZINC000479580180    0.1300
     44 H44        -3.8893    3.7102   52.6418 H       1  ZINC000479580180    0.1300
     45 H45        -5.9203    3.9046   54.0166 H       1  ZINC000479580180    0.1300
     46 H46        -7.6242    2.1309   53.9589 H       1  ZINC000479580180    0.1300
     47 H47        -8.8930   -2.8597   51.7200 H       1  ZINC000479580180    0.4400
     48 H48       -10.7478   -3.5452   52.5362 H       1  ZINC000479580180    0.0900
     49 H49       -10.1055   -3.5432   54.1968 H       1  ZINC000479580180    0.0700
     50 H50       -12.3149   -4.5844   54.2089 H       1  ZINC000479580180    0.1000
     51 H51       -13.0182   -3.1751   53.3742 H       1  ZINC000479580180    0.0800
@<TRIPOS>BOND
     1     1     2    2
     2     2     3    1
     3     2    14   am
     4     3     4    1
     5     3    31    1
     6     3    32    1
     7     4    13    1
     8     4     5    2
     9     5     6    1
    10     5    33    1
    11     6     7    1
    12     7    13   ar
    13     7     8   ar
    14     8     9   ar
    15     8    34    1
    16     9    10    1
    17     9    11   ar
    18    11    12   ar
    19    11    35    1
    20    12    13   ar
    21    12    36    1
    22    14    30    1
    23    14    15    1
    24    15    16    1
    25    15    37    1
    26    15    38    1
    27    16    17    1
    28    16    39    1
    29    16    40    1
    30    17    18    1
    31    17    29    1
    32    17    41    1
    33    18    28    1
    34    18    19    2
    35    19    20    1
    36    20    21    1
    37    20    27    2
    38    21    26   ar
    39    21    22   ar
    40    22    23   ar
    41    22    42    1
    42    23    24   ar
    43    23    43    1
    44    24    25   ar
    45    24    44    1
    46    25    26   ar
    47    25    45    1
    48    26    46    1
    49    27    28    1
    50    28    47    1
    51    29    30    1
    52    29    48    1
    53    29    49    1
    54    30    50    1
    55    30    51    1
@<TRIPOS>SUBSTRUCTURE
     1 ZINC000479580180        1 TEMP              0 ****  ****    0 ROOT


##########                                Name:    ZINC001369071670
##########                DOCK_Rotatable_Bonds:                   8
##########                         Heavy_Atoms:                  24
##########                    Molecular_Weight:             335.366
##########                DOCK_Rotatable_Bonds:                   8
##########                       Formal_Charge:        -2.90573e-07
##########                     HBond_Acceptors:                  10
##########                        HBond_Donors:                   1
##########                         Heavy_Atoms:                  24
##########                          Grid_Score:          -32.661728
##########                     Grid_vdw_energy:          -32.098515
##########                      Grid_es_energy:           -0.563215
##########           Internal_energy_repulsive:            8.727432

@<TRIPOS>MOLECULE
ZINC001369071670
 45 47 1 0 0
SMALL
USER_CHARGES


@<TRIPOS>ATOM
      1 C1        -10.7293   -2.4186   52.9455 C.3     1  ZINC001369071670   -0.0800
      2 C2         -9.5139   -1.5807   52.6422 C.2     1  ZINC001369071670    0.0000
      3 C3         -9.1521   -0.4299   53.2542 C.2     1  ZINC001369071670   -0.2300
      4 C4         -7.9497   -0.0570   52.5988 C.2     1  ZINC001369071670    0.2100
      5 O5         -7.1889    1.0375   52.8536 O.3     1  ZINC001369071670   -0.2600
      6 C6         -6.0584    1.2533   52.0066 C.3     1  ZINC001369071670    0.0400
      7 C7         -5.3020    2.4684   52.4782 C.2     1  ZINC001369071670    0.5200
      8 O8         -5.9061    3.4478   52.8614 O.2     1  ZINC001369071670   -0.5100
      9 N9         -3.9543    2.4667   52.4742 N.am    1  ZINC001369071670   -0.7200
     10 C10        -3.2189    3.6473   52.9344 C.3     1  ZINC001369071670    0.1500
     11 H11        -3.8175    4.5405   52.7560 H       1  ZINC001369071670    0.0900
     12 C12        -2.9305    3.5171   54.4313 C.3     1  ZINC001369071670   -0.1700
     13 C13        -1.8990    3.7566   52.1683 C.3     1  ZINC001369071670   -0.1200
     14 C14        -1.2039    2.4031   51.9351 C.3     1  ZINC001369071670    0.0100
     15 N15        -0.9173    2.8974   50.5703 N.3     1  ZINC001369071670   -0.4800
     16 C16        -1.1430    1.8448   49.5709 C.3     1  ZINC001369071670    0.1000
     17 C17         0.1821    1.2794   49.1288 C.2     1  ZINC001369071670    0.1900
     18 N18         1.3361    1.4263   49.7326 N.2     1  ZINC001369071670   -0.3000
     19 N19         2.2266    0.7953   49.0479 N.2     1  ZINC001369071670   -0.0700
     20 N20         1.6707    0.2498   48.0230 N.2     1  ZINC001369071670   -0.0900
     21 N21         0.4094    0.5209   48.0404 N.pl3   1  ZINC001369071670   -0.3000
     22 C22        -0.5866    0.0918   47.0555 C.3     1  ZINC001369071670    0.0800
     23 C23        -2.0728    3.8189   50.6401 C.3     1  ZINC001369071670    0.0200
     24 N24        -7.7217   -0.9785   51.7016 N.2     1  ZINC001369071670   -0.4100
     25 O25        -8.5769   -1.8332   51.7171 O.3     1  ZINC001369071670    0.1000
     26 H26       -10.7446   -3.2879   52.2880 H       1  ZINC001369071670    0.0900
     27 H27       -10.6932   -2.7490   53.9836 H       1  ZINC001369071670    0.1000
     28 H28       -11.6293   -1.8252   52.7842 H       1  ZINC001369071670    0.1000
     29 H29        -9.6604    0.0857   54.0556 H       1  ZINC001369071670    0.1800
     30 H30        -5.4050    0.3815   52.0436 H       1  ZINC001369071670    0.1000
     31 H31        -6.3966    1.4107   50.9824 H       1  ZINC001369071670    0.1000
     32 H32        -3.4711    1.6838   52.1667 H       1  ZINC001369071670    0.4000
     33 H33        -3.8709    3.4392   54.9769 H       1  ZINC001369071670    0.0600
     34 H34        -2.3319    2.6238   54.6097 H       1  ZINC001369071670    0.0600
     35 H35        -2.3834    4.3955   54.7736 H       1  ZINC001369071670    0.0700
     36 H36        -1.2393    4.5275   52.5667 H       1  ZINC001369071670    0.1100
     37 H37        -0.3127    2.2561   52.5452 H       1  ZINC001369071670    0.1000
     38 H38        -1.8830    1.5507   51.9598 H       1  ZINC001369071670    0.0800
     39 H39        -1.7484    1.0514   50.0092 H       1  ZINC001369071670    0.1000
     40 H40        -1.6635    2.2659   48.7107 H       1  ZINC001369071670    0.0900
     41 H41        -1.0088   -0.8662   47.3593 H       1  ZINC001369071670    0.1000
     42 H42        -1.3809    0.8357   46.9941 H       1  ZINC001369071670    0.1000
     43 H43        -0.1113   -0.0136   46.0803 H       1  ZINC001369071670    0.1100
     44 H44        -3.0060    3.3807   50.2861 H       1  ZINC001369071670    0.0800
     45 H45        -1.8758    4.8033   50.2155 H       1  ZINC001369071670    0.1000
@<TRIPOS>BOND
     1     1     2    1
     2     1    26    1
     3     1    27    1
     4     1    28    1
     5     2    25    1
     6     2     3    2
     7     3     4    1
     8     3    29    1
     9     4     5    1
    10     4    24    2
    11     5     6    1
    12     6     7    1
    13     6    30    1
    14     6    31    1
    15     7     8    2
    16     7     9   am
    17     9    10    1
    18     9    32    1
    19    10    11    1
    20    10    12    1
    21    10    13    1
    22    12    33    1
    23    12    34    1
    24    12    35    1
    25    13    23    1
    26    13    14    1
    27    13    36    1
    28    14    15    1
    29    14    37    1
    30    14    38    1
    31    15    16    1
    32    15    23    1
    33    16    17    1
    34    16    39    1
    35    16    40    1
    36    17    21    1
    37    17    18    2
    38    18    19    1
    39    19    20    2
    40    20    21    1
    41    21    22    1
    42    22    41    1
    43    22    42    1
    44    22    43    1
    45    23    44    1
    46    23    45    1
    47    24    25    1
@<TRIPOS>SUBSTRUCTURE
     1 ZINC001369071670        1 TEMP              0 ****  ****    0 ROOT


##########                                Name:    ZINC000028372981
##########                DOCK_Rotatable_Bonds:                   7
##########                         Heavy_Atoms:                  28
##########                    Molecular_Weight:             380.443
##########                DOCK_Rotatable_Bonds:                   7
##########                       Formal_Charge:         1.78814e-07
##########                     HBond_Acceptors:                   6
##########                        HBond_Donors:                   1
##########                         Heavy_Atoms:                  28
##########                          Grid_Score:          -32.625080
##########                     Grid_vdw_energy:          -32.443256
##########                      Grid_es_energy:           -0.181823
##########           Internal_energy_repulsive:           20.509909

@<TRIPOS>MOLECULE
ZINC000028372981
 52 54 1 0 0
SMALL
USER_CHARGES


@<TRIPOS>ATOM
      1 C1        -10.3410   -2.1179   52.4252 C.3     1  ZINC000028372981   -0.1800
      2 C2         -8.9826   -1.4725   52.3306 C.2     1  ZINC000028372981    0.5200
      3 O3         -8.0008   -2.1535   52.1230 O.2     1  ZINC000028372981   -0.5100
      4 N4         -8.8587   -0.1384   52.4767 N.am    1  ZINC000028372981   -0.5500
      5 C5         -9.9687    0.7842   52.7283 C.3     1  ZINC000028372981    0.1000
      6 C6         -9.3240    2.1772   52.8155 C.3     1  ZINC000028372981   -0.0900
      7 C7         -7.8483    1.9259   52.5991 C.ar    1  ZINC000028372981   -0.1500
      8 C8         -6.7806    2.7949   52.5748 C.ar    1  ZINC000028372981    0.0000
      9 C9         -5.4893    2.3103   52.3475 C.ar    1  ZINC000028372981   -0.1600
     10 C10        -4.3429    3.2372   52.3152 C.2     1  ZINC000028372981    0.5200
     11 O11        -4.4198    4.3177   52.8656 O.2     1  ZINC000028372981   -0.5000
     12 O12        -3.2103    2.8860   51.6754 O.3     1  ZINC000028372981   -0.3200
     13 C13        -2.0717    3.7763   51.8141 C.3     1  ZINC000028372981    0.0700
     14 H14        -1.9623    4.0662   52.8591 H       1  ZINC000028372981    0.1200
     15 C15        -2.2938    5.0254   50.9589 C.3     1  ZINC000028372981   -0.1700
     16 C16        -0.8223    3.0691   51.3555 C.2     1  ZINC000028372981    0.5200
     17 O17         0.2677    3.5119   51.6498 O.2     1  ZINC000028372981   -0.4900
     18 N18        -0.9164    1.9446   50.6186 N.am    1  ZINC000028372981   -0.6600
     19 C19         0.2436    1.2881   50.1928 C.ar    1  ZINC000028372981    0.1500
     20 C20         1.2105    0.9146   51.1168 C.ar    1  ZINC000028372981   -0.1300
     21 C21         2.3544    0.2661   50.6933 C.ar    1  ZINC000028372981   -0.1000
     22 C22         2.5367   -0.0115   49.3512 C.ar    1  ZINC000028372981   -0.1300
     23 C23         1.5753    0.3588   48.4285 C.ar    1  ZINC000028372981   -0.0700
     24 C24         1.7780    0.0537   46.9667 C.3     1  ZINC000028372981   -0.1200
     25 C25         0.4301    1.0081   48.8452 C.ar    1  ZINC000028372981   -0.1200
     26 C26        -0.6165    1.4121   47.8391 C.3     1  ZINC000028372981   -0.1200
     27 C27        -5.2921    0.9395   52.1567 C.ar    1  ZINC000028372981   -0.0200
     28 C28        -6.3625    0.0790   52.1880 C.ar    1  ZINC000028372981   -0.1800
     29 C29        -7.6563    0.5630   52.4101 C.ar    1  ZINC000028372981    0.1900
     30 H30       -10.9931   -1.7071   51.6544 H       1  ZINC000028372981    0.1000
     31 H31       -10.2427   -3.1941   52.2821 H       1  ZINC000028372981    0.1000
     32 H32       -10.7699   -1.9196   53.4074 H       1  ZINC000028372981    0.1000
     33 H33       -10.6832    0.7492   51.9058 H       1  ZINC000028372981    0.0900
     34 H34       -10.4610    0.5358   53.6685 H       1  ZINC000028372981    0.0900
     35 H35        -9.7176    2.8281   52.0348 H       1  ZINC000028372981    0.1000
     36 H36        -9.4970    2.6155   53.7984 H       1  ZINC000028372981    0.1000
     37 H37        -6.9414    3.8519   52.7271 H       1  ZINC000028372981    0.1400
     38 H38        -2.4032    4.7355   49.9138 H       1  ZINC000028372981    0.0800
     39 H39        -3.1975    5.5368   51.2905 H       1  ZINC000028372981    0.0800
     40 H40        -1.4391    5.6937   51.0630 H       1  ZINC000028372981    0.0800
     41 H41        -1.7882    1.5905   50.3832 H       1  ZINC000028372981    0.4100
     42 H42         1.0663    1.1269   52.1659 H       1  ZINC000028372981    0.1400
     43 H43         3.1067   -0.0246   51.4115 H       1  ZINC000028372981    0.1300
     44 H44         3.4318   -0.5189   49.0227 H       1  ZINC000028372981    0.1200
     45 H45         1.3587   -0.9261   46.7384 H       1  ZINC000028372981    0.0700
     46 H46         1.2779    0.8123   46.3646 H       1  ZINC000028372981    0.0700
     47 H47         2.8442    0.0545   46.7398 H       1  ZINC000028372981    0.0700
     48 H48        -1.3376    0.6034   47.7202 H       1  ZINC000028372981    0.0700
     49 H49        -1.1297    2.3081   48.1884 H       1  ZINC000028372981    0.0600
     50 H50        -0.1393    1.6172   46.8808 H       1  ZINC000028372981    0.0800
     51 H51        -4.2970    0.5567   51.9850 H       1  ZINC000028372981    0.1500
     52 H52        -6.2043   -0.9791   52.0396 H       1  ZINC000028372981    0.1500
@<TRIPOS>BOND
     1     1     2    1
     2     1    30    1
     3     1    31    1
     4     1    32    1
     5     2     3    2
     6     2     4   am
     7     4    29    1
     8     4     5    1
     9     5     6    1
    10     5    33    1
    11     5    34    1
    12     6     7    1
    13     6    35    1
    14     6    36    1
    15     7    29   ar
    16     7     8   ar
    17     8     9   ar
    18     8    37    1
    19     9    10    1
    20     9    27   ar
    21    10    11    2
    22    10    12    1
    23    12    13    1
    24    13    14    1
    25    13    15    1
    26    13    16    1
    27    15    38    1
    28    15    39    1
    29    15    40    1
    30    16    17    2
    31    16    18   am
    32    18    19    1
    33    18    41    1
    34    19    25   ar
    35    19    20   ar
    36    20    21   ar
    37    20    42    1
    38    21    22   ar
    39    21    43    1
    40    22    23   ar
    41    22    44    1
    42    23    24    1
    43    23    25   ar
    44    24    45    1
    45    24    46    1
    46    24    47    1
    47    25    26    1
    48    26    48    1
    49    26    49    1
    50    26    50    1
    51    27    28   ar
    52    27    51    1
    53    28    29   ar
    54    28    52    1
@<TRIPOS>SUBSTRUCTURE
     1 ZINC000028372981        1 TEMP              0 ****  ****    0 ROOT


##########                                Name:    ZINC001109404798
##########                DOCK_Rotatable_Bonds:                   7
##########                         Heavy_Atoms:                  25
##########                    Molecular_Weight:              360.48
##########                DOCK_Rotatable_Bonds:                   7
##########                       Formal_Charge:           0.0100002
##########                     HBond_Acceptors:                   7
##########                        HBond_Donors:                   1
##########                         Heavy_Atoms:                  25
##########                          Grid_Score:          -32.611767
##########                     Grid_vdw_energy:          -31.283646
##########                      Grid_es_energy:           -1.328123
##########           Internal_energy_repulsive:           28.318890

@<TRIPOS>MOLECULE
ZINC001109404798
 49 52 1 0 0
SMALL
USER_CHARGES


@<TRIPOS>ATOM
      1 C1          1.7613    4.9684   44.7443 C.3     1  ZINC001109404798   -0.0600
      2 C2          0.8090    4.0068   45.4072 C.2     1  ZINC001109404798    0.1700
      3 N3         -0.2974    3.5491   44.9022 N.2     1  ZINC001109404798   -0.3900
      4 O4         -0.8353    2.7940   45.6844 O.3     1  ZINC001109404798    0.1000
      5 C5         -0.1008    2.6954   46.7965 C.2     1  ZINC001109404798    0.1900
      6 C6         -0.4177    1.8604   48.0103 C.3     1  ZINC001109404798    0.1600
      7 H7          0.5064    1.6131   48.5328 H       1  ZINC001109404798    0.1000
      8 C8         -1.1175    0.5715   47.5742 C.3     1  ZINC001109404798   -0.1500
      9 N9         -1.3005    2.6170   48.9082 N.3     1  ZINC001109404798   -0.4800
     10 C10        -0.5562    3.7466   49.5713 C.3     1  ZINC001109404798    0.0400
     11 H11        -0.1722    4.5191   48.9050 H       1  ZINC001109404798    0.1100
     12 C12         0.5188    2.9607   50.3809 C.3     1  ZINC001109404798   -0.1600
     13 C13        -0.2080    1.6503   50.7707 C.3     1  ZINC001109404798   -0.1600
     14 C14        -1.6252    1.8195   50.1444 C.3     1  ZINC001109404798    0.0400
     15 H15        -2.1815    0.8962   49.9826 H       1  ZINC001109404798    0.1200
     16 C16        -2.3347    2.8859   51.0323 C.3     1  ZINC001109404798    0.1500
     17 H17        -3.3950    2.9452   50.7872 H       1  ZINC001109404798    0.1000
     18 N18        -2.1518    2.5785   52.4529 N.am    1  ZINC001109404798   -0.7200
     19 C19        -2.8167    3.2873   53.3868 C.2     1  ZINC001109404798    0.5100
     20 O20        -3.5676    4.1785   53.0510 O.2     1  ZINC001109404798   -0.5300
     21 C21        -2.6272    2.9723   54.8483 C.3     1  ZINC001109404798   -0.1300
     22 C22        -1.4046    3.7244   55.3778 C.3     1  ZINC001109404798   -0.0400
     23 C23        -0.8058    2.9611   56.5310 C.2     1  ZINC001109404798   -0.1000
     24 C24        -1.5207    2.1271   57.2878 C.2     1  ZINC001109404798   -0.2100
     25 S25        -0.4892    1.4238   58.5267 S.3     1  ZINC001109404798    0.1000
     26 C26         0.8958    2.3285   57.9294 C.2     1  ZINC001109404798   -0.2100
     27 C27         0.5291    3.0677   56.8814 C.2     1  ZINC001109404798   -0.1300
     28 C28        -1.6083    4.2229   50.6179 C.3     1  ZINC001109404798   -0.1100
     29 N29         0.9511    3.4601   46.6277 N.2     1  ZINC001109404798   -0.4800
     30 H30         2.5012    4.4099   44.1710 H       1  ZINC001109404798    0.0900
     31 H31         1.2062    5.6273   44.0766 H       1  ZINC001109404798    0.0900
     32 H32         2.2652    5.5636   45.5057 H       1  ZINC001109404798    0.0900
     33 H33        -0.4625    0.0101   46.9079 H       1  ZINC001109404798    0.0700
     34 H34        -1.3467   -0.0324   48.4521 H       1  ZINC001109404798    0.0800
     35 H35        -2.0417    0.8187   47.0517 H       1  ZINC001109404798    0.0800
     36 H36         1.3877    2.7471   49.7584 H       1  ZINC001109404798    0.0700
     37 H37         0.8109    3.5169   51.2715 H       1  ZINC001109404798    0.0800
     38 H38         0.3006    0.7871   50.3413 H       1  ZINC001109404798    0.0700
     39 H39        -0.2761    1.5570   51.8545 H       1  ZINC001109404798    0.0800
     40 H40        -1.5521    1.8650   52.7216 H       1  ZINC001109404798    0.4000
     41 H41        -3.5126    3.2808   55.4042 H       1  ZINC001109404798    0.0900
     42 H42        -2.4759    1.8999   54.9722 H       1  ZINC001109404798    0.1000
     43 H43        -0.6651    3.8209   54.5829 H       1  ZINC001109404798    0.0800
     44 H44        -1.7062    4.7157   55.7159 H       1  ZINC001109404798    0.0800
     45 H45        -2.5722    1.9164   57.1598 H       1  ZINC001109404798    0.1600
     46 H46         1.8919    2.2880   58.3447 H       1  ZINC001109404798    0.1600
     47 H47         1.2195    3.7071   56.3514 H       1  ZINC001109404798    0.1400
     48 H48        -1.1003    4.6652   51.4750 H       1  ZINC001109404798    0.0800
     49 H49        -2.3187    4.9277   50.1859 H       1  ZINC001109404798    0.0900
@<TRIPOS>BOND
     1     1     2    1
     2     1    30    1
     3     1    31    1
     4     1    32    1
     5     2    29    1
     6     2     3    2
     7     3     4    1
     8     4     5    1
     9     5     6    1
    10     5    29    2
    11     6     7    1
    12     6     8    1
    13     6     9    1
    14     8    33    1
    15     8    34    1
    16     8    35    1
    17     9    14    1
    18     9    10    1
    19    10    11    1
    20    10    28    1
    21    10    12    1
    22    12    13    1
    23    12    36    1
    24    12    37    1
    25    13    14    1
    26    13    38    1
    27    13    39    1
    28    14    15    1
    29    14    16    1
    30    16    17    1
    31    16    18    1
    32    16    28    1
    33    18    19   am
    34    18    40    1
    35    19    20    2
    36    19    21    1
    37    21    22    1
    38    21    41    1
    39    21    42    1
    40    22    23    1
    41    22    43    1
    42    22    44    1
    43    23    27    1
    44    23    24    2
    45    24    25    1
    46    24    45    1
    47    25    26    1
    48    26    27    2
    49    26    46    1
    50    27    47    1
    51    28    48    1
    52    28    49    1
@<TRIPOS>SUBSTRUCTURE
     1 ZINC001109404798        1 TEMP              0 ****  ****    0 ROOT


##########                                Name:    ZINC000800038938
##########                DOCK_Rotatable_Bonds:                   6
##########                         Heavy_Atoms:                  25
##########                    Molecular_Weight:             386.274
##########                DOCK_Rotatable_Bonds:                   6
##########                       Formal_Charge:           0.0200003
##########                     HBond_Acceptors:                   7
##########                        HBond_Donors:                   0
##########                         Heavy_Atoms:                  25
##########                          Grid_Score:          -32.533081
##########                     Grid_vdw_energy:          -30.965199
##########                      Grid_es_energy:           -1.567881
##########           Internal_energy_repulsive:           10.795949

@<TRIPOS>MOLECULE
ZINC000800038938
 46 48 1 0 0
SMALL
USER_CHARGES


@<TRIPOS>ATOM
      1 C1        -10.6914   -4.2491   57.8897 C.3     1  ZINC000800038938    0.0300
      2 O2        -11.8264   -4.7793   57.2020 O.3     1  ZINC000800038938   -0.3800
      3 C3        -12.6475   -3.7864   56.5838 C.3     1  ZINC000800038938    0.0900
      4 H4        -12.7625   -2.9305   57.2489 H       1  ZINC000800038938    0.0700
      5 C5        -14.0298   -4.3808   56.2437 C.3     1  ZINC000800038938   -0.1400
      6 C6        -14.4029   -3.7249   54.8912 C.3     1  ZINC000800038938   -0.1400
      7 C7        -13.0448   -3.6779   54.1479 C.3     1  ZINC000800038938    0.0900
      8 H8        -12.8196   -4.6471   53.7029 H       1  ZINC000800038938    0.0900
      9 O9        -13.0585   -2.6433   53.1292 O.3     1  ZINC000800038938   -0.3500
     10 C10       -12.0564   -2.6541   52.2361 C.2     1  ZINC000800038938    0.4500
     11 O11       -11.4532   -3.6779   52.0174 O.2     1  ZINC000800038938   -0.4800
     12 C12       -11.6837   -1.3894   51.5064 C.3     1  ZINC000800038938    0.1500
     13 H13       -11.1219   -1.6336   50.6048 H       1  ZINC000800038938    0.1200
     14 C14       -12.9585   -0.6035   51.1335 C.3     1  ZINC000800038938   -0.1200
     15 C15       -12.5359    0.8721   51.3608 C.3     1  ZINC000800038938   -0.1300
     16 C16       -11.6021    0.7424   52.5900 C.3     1  ZINC000800038938    0.0900
     17 N17       -10.8756   -0.5272   52.3810 N.am    1  ZINC000800038938   -0.6000
     18 C18        -9.6753   -0.8411   52.9074 C.2     1  ZINC000800038938    0.5800
     19 O19        -9.1695   -1.9200   52.6668 O.2     1  ZINC000800038938   -0.4900
     20 C20        -8.9742    0.1262   53.7772 C.ar    1  ZINC000800038938   -0.1100
     21 C21        -9.4850    0.4324   55.0395 C.ar    1  ZINC000800038938   -0.0700
     22 C22        -8.8250    1.3370   55.8470 C.ar    1  ZINC000800038938   -0.0400
     23 Cl23       -9.4584    1.7189   57.4175 Cl      1  ZINC000800038938   -0.0500
     24 C24        -7.6585    1.9402   55.4072 C.ar    1  ZINC000800038938   -0.0700
     25 C25        -7.1469    1.6417   54.1575 C.ar    1  ZINC000800038938   -0.1000
     26 C26        -7.7936    0.7340   53.3419 C.ar    1  ZINC000800038938    0.0100
     27 Cl27       -7.1499    0.3606   51.7735 Cl      1  ZINC000800038938   -0.0300
     28 C28       -12.0206   -3.3385   55.2519 C.3     1  ZINC000800038938   -0.1200
     29 H29       -10.1199   -5.0657   58.3309 H       1  ZINC000800038938    0.0900
     30 H30       -10.0623   -3.7039   57.1861 H       1  ZINC000800038938    0.0400
     31 H31       -11.0265   -3.5733   58.6766 H       1  ZINC000800038938    0.0400
     32 H32       -13.9637   -5.4636   56.1373 H       1  ZINC000800038938    0.0800
     33 H33       -14.7581   -4.1156   57.0101 H       1  ZINC000800038938    0.0800
     34 H34       -15.1195   -4.3408   54.3478 H       1  ZINC000800038938    0.0800
     35 H35       -14.7944   -2.7193   55.0444 H       1  ZINC000800038938    0.0800
     36 H36       -13.2242   -0.7722   50.0900 H       1  ZINC000800038938    0.1000
     37 H37       -13.7844   -0.8738   51.7914 H       1  ZINC000800038938    0.0900
     38 H38       -11.9948    1.2608   50.4982 H       1  ZINC000800038938    0.0900
     39 H39       -13.4003    1.4950   51.5910 H       1  ZINC000800038938    0.1000
     40 H40       -10.9022    1.5771   52.6244 H       1  ZINC000800038938    0.0900
     41 H41       -12.1875    0.6989   53.5084 H       1  ZINC000800038938    0.0800
     42 H42       -10.3947   -0.0369   55.3837 H       1  ZINC000800038938    0.1500
     43 H43        -7.1461    2.6471   56.0429 H       1  ZINC000800038938    0.1500
     44 H44        -6.2369    2.1160   53.8205 H       1  ZINC000800038938    0.1500
     45 H45       -11.8320   -2.2651   55.2691 H       1  ZINC000800038938    0.0900
     46 H46       -11.0902   -3.8787   55.0769 H       1  ZINC000800038938    0.0900
@<TRIPOS>BOND
     1     1     2    1
     2     1    29    1
     3     1    30    1
     4     1    31    1
     5     2     3    1
     6     3     4    1
     7     3    28    1
     8     3     5    1
     9     5     6    1
    10     5    32    1
    11     5    33    1
    12     6     7    1
    13     6    34    1
    14     6    35    1
    15     7     8    1
    16     7     9    1
    17     7    28    1
    18     9    10    1
    19    10    11    2
    20    10    12    1
    21    12    13    1
    22    12    17    1
    23    12    14    1
    24    14    15    1
    25    14    36    1
    26    14    37    1
    27    15    16    1
    28    15    38    1
    29    15    39    1
    30    16    17    1
    31    16    40    1
    32    16    41    1
    33    17    18   am
    34    18    19    2
    35    18    20    1
    36    20    26   ar
    37    20    21   ar
    38    21    22   ar
    39    21    42    1
    40    22    23    1
    41    22    24   ar
    42    24    25   ar
    43    24    43    1
    44    25    26   ar
    45    25    44    1
    46    26    27    1
    47    28    45    1
    48    28    46    1
@<TRIPOS>SUBSTRUCTURE
     1 ZINC000800038938        1 TEMP              0 ****  ****    0 ROOT


##########                                Name:    ZINC001340305486
##########                DOCK_Rotatable_Bonds:                   8
##########                         Heavy_Atoms:                  27
##########                    Molecular_Weight:             378.431
##########                DOCK_Rotatable_Bonds:                   8
##########                       Formal_Charge:          0.00999955
##########                     HBond_Acceptors:                  10
##########                        HBond_Donors:                   2
##########                         Heavy_Atoms:                  27
##########                          Grid_Score:          -32.517632
##########                     Grid_vdw_energy:          -30.945444
##########                      Grid_es_energy:           -1.572188
##########           Internal_energy_repulsive:           14.092253

@<TRIPOS>MOLECULE
ZINC001340305486
 53 55 1 0 0
SMALL
USER_CHARGES


@<TRIPOS>ATOM
      1 C1          2.9596   -1.3934   50.2163 C.3     1  ZINC001340305486    0.0900
      2 N2          2.3375   -0.4106   51.1069 N.am    1  ZINC001340305486   -0.7300
      3 C3          1.7973    0.7140   50.5971 C.2     1  ZINC001340305486    0.5200
      4 O4          1.8276    0.9130   49.4011 O.2     1  ZINC001340305486   -0.5100
      5 C5          1.1557    1.7242   51.5131 C.3     1  ZINC001340305486    0.0600
      6 H6          0.7669    1.2187   52.3970 H       1  ZINC001340305486    0.0900
      7 C7          0.0080    2.4256   50.7779 C.3     1  ZINC001340305486    0.0900
      8 N8         -0.4772    3.5297   51.6211 N.am    1  ZINC001340305486   -0.5800
      9 C9         -1.7897    3.6696   51.8935 C.2     1  ZINC001340305486    0.5100
     10 O10        -2.1703    4.5872   52.5906 O.2     1  ZINC001340305486   -0.5200
     11 C11        -2.7765    2.6948   51.3370 C.2     1  ZINC001340305486    0.5200
     12 O12        -2.8243    2.4959   50.1408 O.2     1  ZINC001340305486   -0.5000
     13 N13        -3.6133    2.0369   52.1635 N.am    1  ZINC001340305486   -0.6900
     14 C14        -4.5818    1.0826   51.6178 C.3     1  ZINC001340305486    0.1200
     15 C15        -5.9544    1.3340   52.2451 C.3     1  ZINC001340305486   -0.0400
     16 C16        -6.7861    0.0807   52.1524 C.2     1  ZINC001340305486    0.1700
     17 N17        -6.3910   -1.0815   51.7040 N.2     1  ZINC001340305486   -0.2800
     18 N18        -7.3598   -1.9265   51.7756 N.2     1  ZINC001340305486   -0.2900
     19 C19        -8.4111   -1.3425   52.2762 C.2     1  ZINC001340305486    0.1900
     20 C20        -9.7526   -1.9679   52.5574 C.3     1  ZINC001340305486   -0.0400
     21 C21       -10.8555   -1.0478   52.0256 C.3     1  ZINC001340305486   -0.1200
     22 C22       -11.2413   -0.0374   53.1017 C.3     1  ZINC001340305486   -0.1300
     23 C23       -10.0242    0.3352   53.9471 C.3     1  ZINC001340305486   -0.1400
     24 C24        -8.9582    0.9848   53.0605 C.3     1  ZINC001340305486    0.1000
     25 N25        -8.0788   -0.0539   52.5228 N.pl3   1  ZINC001340305486   -0.4600
     26 C26         0.5129    4.4768   52.1577 C.3     1  ZINC001340305486    0.0200
     27 C27         1.6361    3.6754   52.8256 C.3     1  ZINC001340305486    0.0500
     28 O28         2.1272    2.6960   51.9073 O.3     1  ZINC001340305486   -0.3500
     29 H29         2.2199   -1.7566   49.5028 H       1  ZINC001340305486    0.0600
     30 H30         3.7842   -0.9256   49.6784 H       1  ZINC001340305486    0.0600
     31 H31         3.3375   -2.2293   50.8050 H       1  ZINC001340305486    0.0800
     32 H32         2.3144   -0.5692   52.0636 H       1  ZINC001340305486    0.4000
     33 H33         0.3675    2.8202   49.8275 H       1  ZINC001340305486    0.0900
     34 H34        -0.8010    1.7172   50.5994 H       1  ZINC001340305486    0.1100
     35 H35        -3.5743    2.1951   53.1197 H       1  ZINC001340305486    0.4200
     36 H36        -4.6474    1.2096   50.5371 H       1  ZINC001340305486    0.0900
     37 H37        -4.2588    0.0668   51.8453 H       1  ZINC001340305486    0.0800
     38 H38        -5.8302    1.6111   53.2919 H       1  ZINC001340305486    0.0900
     39 H39        -6.4550    2.1425   51.7122 H       1  ZINC001340305486    0.1100
     40 H40        -9.8148   -2.9362   52.0608 H       1  ZINC001340305486    0.1000
     41 H41        -9.8751   -2.1000   53.6326 H       1  ZINC001340305486    0.0900
     42 H42       -10.4932   -0.5188   51.1441 H       1  ZINC001340305486    0.0600
     43 H43       -11.7280   -1.6439   51.7579 H       1  ZINC001340305486    0.0800
     44 H44       -11.6378    0.8601   52.6269 H       1  ZINC001340305486    0.0700
     45 H45       -12.0068   -0.4715   53.7449 H       1  ZINC001340305486    0.0800
     46 H46       -10.3246    1.0364   54.7258 H       1  ZINC001340305486    0.0900
     47 H47        -9.6141   -0.5634   54.4081 H       1  ZINC001340305486    0.0800
     48 H48        -9.4416    1.5170   52.2412 H       1  ZINC001340305486    0.0900
     49 H49        -8.3700    1.6856   53.6530 H       1  ZINC001340305486    0.1000
     50 H50         0.9233    5.0779   51.3462 H       1  ZINC001340305486    0.0800
     51 H51         0.0383    5.1267   52.8928 H       1  ZINC001340305486    0.1700
     52 H52         2.4457    4.3486   53.1074 H       1  ZINC001340305486    0.1200
     53 H53         1.2491    3.1778   53.7149 H       1  ZINC001340305486    0.0600
@<TRIPOS>BOND
     1     1     2    1
     2     1    29    1
     3     1    30    1
     4     1    31    1
     5     2     3   am
     6     2    32    1
     7     3     4    2
     8     3     5    1
     9     5     6    1
    10     5    28    1
    11     5     7    1
    12     7     8    1
    13     7    33    1
    14     7    34    1
    15     8     9   am
    16     8    26    1
    17     9    10    2
    18     9    11    1
    19    11    12    2
    20    11    13   am
    21    13    14    1
    22    13    35    1
    23    14    15    1
    24    14    36    1
    25    14    37    1
    26    15    16    1
    27    15    38    1
    28    15    39    1
    29    16    25    1
    30    16    17    2
    31    17    18    1
    32    18    19    2
    33    19    25    1
    34    19    20    1
    35    20    21    1
    36    20    40    1
    37    20    41    1
    38    21    22    1
    39    21    42    1
    40    21    43    1
    41    22    23    1
    42    22    44    1
    43    22    45    1
    44    23    24    1
    45    23    46    1
    46    23    47    1
    47    24    25    1
    48    24    48    1
    49    24    49    1
    50    26    27    1
    51    26    50    1
    52    26    51    1
    53    27    28    1
    54    27    52    1
    55    27    53    1
@<TRIPOS>SUBSTRUCTURE
     1 ZINC001340305486        1 TEMP              0 ****  ****    0 ROOT


##########                                Name:    ZINC000409064708
##########                DOCK_Rotatable_Bonds:                   8
##########                         Heavy_Atoms:                  29
##########                    Molecular_Weight:             415.442
##########                DOCK_Rotatable_Bonds:                   8
##########                       Formal_Charge:                0.03
##########                     HBond_Acceptors:                   8
##########                        HBond_Donors:                   0
##########                         Heavy_Atoms:                  29
##########                          Grid_Score:          -32.491215
##########                     Grid_vdw_energy:          -31.854410
##########                      Grid_es_energy:           -0.636804
##########           Internal_energy_repulsive:           19.542006

@<TRIPOS>MOLECULE
ZINC000409064708
 47 49 1 0 0
SMALL
USER_CHARGES


@<TRIPOS>ATOM
      1 C1        -14.3439   -4.9649   57.4501 C.3     1  ZINC000409064708    0.0400
      2 O2        -14.5049   -4.0148   56.3639 O.3     1  ZINC000409064708   -0.3500
      3 C3        -13.8180   -4.2562   55.2363 C.2     1  ZINC000409064708    0.4600
      4 O4        -13.1244   -5.2419   55.1506 O.2     1  ZINC000409064708   -0.4900
      5 C5        -13.9118   -3.2978   54.0771 C.3     1  ZINC000409064708    0.1400
      6 H6        -14.1030   -3.8548   53.1598 H       1  ZINC000409064708    0.1500
      7 C7        -15.0550   -2.3111   54.3224 C.3     1  ZINC000409064708   -0.1600
      8 N8        -12.6512   -2.5626   53.9481 N.am    1  ZINC000409064708   -0.5600
      9 C9        -12.1122   -1.9574   55.0127 C.2     1  ZINC000409064708    0.5400
     10 O10       -12.5638   -1.9399   56.1419 O.2     1  ZINC000409064708   -0.4200
     11 S11       -10.6137   -1.1870   54.4631 S.3     1  ZINC000409064708   -0.0100
     12 C12       -10.7849   -1.7284   52.7815 C.2     1  ZINC000409064708   -0.2400
     13 C13        -9.9495   -1.4908   51.7387 C.2     1  ZINC000409064708    0.0900
     14 C14        -8.7310   -0.6964   51.9405 C.ar    1  ZINC000409064708   -0.1400
     15 C15        -7.4787   -1.2382   51.6255 C.ar    1  ZINC000409064708    0.0000
     16 C16        -6.3397   -0.4891   51.8167 C.ar    1  ZINC000409064708   -0.1600
     17 C17        -6.4310    0.8029   52.3219 C.ar    1  ZINC000409064708    0.1600
     18 O18        -5.3045    1.5373   52.5084 O.3     1  ZINC000409064708   -0.3000
     19 C19        -5.4552    2.8045   53.1515 C.3     1  ZINC000409064708    0.1000
     20 C20        -4.0994    3.4317   53.3496 C.ar    1  ZINC000409064708   -0.0700
     21 C21        -3.8711    4.2550   54.4361 C.ar    1  ZINC000409064708   -0.1000
     22 C22        -2.6276    4.8312   54.6192 C.ar    1  ZINC000409064708   -0.0900
     23 C23        -1.6115    4.5844   53.7159 C.ar    1  ZINC000409064708   -0.1400
     24 C24        -1.8388    3.7593   52.6272 C.ar    1  ZINC000409064708    0.1000
     25 F25        -0.8461    3.5173   51.7434 F       1  ZINC000409064708   -0.1400
     26 C26        -3.0827    3.1788   52.4478 C.ar    1  ZINC000409064708   -0.1300
     27 C27        -7.6715    1.3457   52.6363 C.ar    1  ZINC000409064708   -0.2200
     28 C28        -8.8175    0.6078   52.4433 C.ar    1  ZINC000409064708   -0.0400
     29 C29       -12.0350   -2.4968   52.7797 C.2     1  ZINC000409064708    0.5600
     30 O30       -12.4752   -3.0277   51.7770 O.2     1  ZINC000409064708   -0.4600
     31 H31       -14.6630   -5.9532   57.1187 H       1  ZINC000409064708    0.0700
     32 H32       -13.2960   -5.0024   57.7478 H       1  ZINC000409064708    0.0700
     33 H33       -14.9519   -4.6527   58.2991 H       1  ZINC000409064708    0.1100
     34 H34       -15.9929   -2.8580   54.4183 H       1  ZINC000409064708    0.1000
     35 H35       -14.8638   -1.7541   55.2397 H       1  ZINC000409064708    0.0800
     36 H36       -15.1228   -1.6178   53.4840 H       1  ZINC000409064708    0.0800
     37 H37       -10.1807   -1.8858   50.7605 H       1  ZINC000409064708    0.1600
     38 H38        -7.4066   -2.2420   51.2336 H       1  ZINC000409064708    0.1300
     39 H39        -5.3734   -0.9058   51.5740 H       1  ZINC000409064708    0.1400
     40 H40        -6.0698    3.4562   52.5305 H       1  ZINC000409064708    0.0800
     41 H41        -5.9362    2.6656   54.1197 H       1  ZINC000409064708    0.0800
     42 H42        -4.6648    4.4487   55.1424 H       1  ZINC000409064708    0.1300
     43 H43        -2.4505    5.4746   55.4682 H       1  ZINC000409064708    0.1400
     44 H44        -0.6404    5.0351   53.8586 H       1  ZINC000409064708    0.1400
     45 H45        -3.2611    2.5348   51.5994 H       1  ZINC000409064708    0.1400
     46 H46        -7.7366    2.3497   53.0288 H       1  ZINC000409064708    0.1300
     47 H47        -9.7808    1.0305   52.6878 H       1  ZINC000409064708    0.1300
@<TRIPOS>BOND
     1     1     2    1
     2     1    31    1
     3     1    32    1
     4     1    33    1
     5     2     3    1
     6     3     4    2
     7     3     5    1
     8     5     6    1
     9     5     7    1
    10     5     8    1
    11     7    34    1
    12     7    35    1
    13     7    36    1
    14     8    29   am
    15     8     9   am
    16     9    10    2
    17     9    11    1
    18    11    12    1
    19    12    13    2
    20    12    29    1
    21    13    14    1
    22    13    37    1
    23    14    28   ar
    24    14    15   ar
    25    15    16   ar
    26    15    38    1
    27    16    17   ar
    28    16    39    1
    29    17    18    1
    30    17    27   ar
    31    18    19    1
    32    19    20    1
    33    19    40    1
    34    19    41    1
    35    20    26   ar
    36    20    21   ar
    37    21    22   ar
    38    21    42    1
    39    22    23   ar
    40    22    43    1
    41    23    24   ar
    42    23    44    1
    43    24    25    1
    44    24    26   ar
    45    26    45    1
    46    27    28   ar
    47    27    46    1
    48    28    47    1
    49    29    30    2
@<TRIPOS>SUBSTRUCTURE
     1 ZINC000409064708        1 TEMP              0 ****  ****    0 ROOT


##########                                Name:    ZINC000482540246
##########                DOCK_Rotatable_Bonds:                  10
##########                         Heavy_Atoms:                  30
##########                    Molecular_Weight:              409.46
##########                DOCK_Rotatable_Bonds:                  10
##########                       Formal_Charge:         2.83122e-07
##########                     HBond_Acceptors:                   7
##########                        HBond_Donors:                   2
##########                         Heavy_Atoms:                  30
##########                          Grid_Score:          -32.485874
##########                     Grid_vdw_energy:          -31.702183
##########                      Grid_es_energy:           -0.783691
##########           Internal_energy_repulsive:           13.382973

@<TRIPOS>MOLECULE
ZINC000482540246
 54 56 1 0 0
SMALL
USER_CHARGES


@<TRIPOS>ATOM
      1 C1        -15.6620   -3.8737   45.4655 C.3     1  ZINC000482540246    0.0400
      2 O2        -14.9825   -3.2536   46.5592 O.3     1  ZINC000482540246   -0.3100
      3 C3        -15.2194   -1.9333   46.7627 C.ar    1  ZINC000482540246    0.3300
      4 C4        -14.5508   -1.2632   47.7788 C.ar    1  ZINC000482540246   -0.1800
      5 C5        -14.8016    0.0837   47.9760 C.ar    1  ZINC000482540246   -0.0100
      6 C6        -14.0964    0.8472   49.0675 C.3     1  ZINC000482540246    0.2000
      7 H7        -14.8160    1.1315   49.8351 H       1  ZINC000482540246    0.1000
      8 C8        -13.4559    2.1053   48.4777 C.3     1  ZINC000482540246   -0.1600
      9 N9        -13.0571    0.0024   49.6611 N.am    1  ZINC000482540246   -0.7400
     10 C10       -12.7729    0.1064   50.9744 C.2     1  ZINC000482540246    0.7100
     11 O11       -13.3780    0.9025   51.6662 O.2     1  ZINC000482540246   -0.5800
     12 N12       -11.8178   -0.6719   51.5209 N.am    1  ZINC000482540246   -0.7400
     13 C13       -11.5101   -0.5600   52.9489 C.3     1  ZINC000482540246    0.2100
     14 H14       -11.9959    0.3263   53.3570 H       1  ZINC000482540246    0.1200
     15 C15        -9.9961   -0.4440   53.1368 C.3     1  ZINC000482540246    0.0500
     16 O16        -9.4465    0.3600   52.0911 O.3     1  ZINC000482540246   -0.3000
     17 C17        -8.0919    0.3832   51.9774 C.ar    1  ZINC000482540246    0.1000
     18 C18        -7.4098   -0.7522   51.5686 C.ar    1  ZINC000482540246   -0.1800
     19 C19        -6.0327   -0.7263   51.4531 C.ar    1  ZINC000482540246   -0.0900
     20 C20        -5.3343    0.4303   51.7448 C.ar    1  ZINC000482540246   -0.1300
     21 C21        -6.0109    1.5652   52.1534 C.ar    1  ZINC000482540246   -0.1200
     22 C22        -7.3891    1.5467   52.2652 C.ar    1  ZINC000482540246    0.0700
     23 F23        -8.0503    2.6552   52.6644 F       1  ZINC000482540246   -0.1300
     24 C24       -12.0132   -1.7848   53.6686 C.ar    1  ZINC000482540246   -0.1000
     25 C25       -11.8799   -3.0318   53.0870 C.ar    1  ZINC000482540246   -0.0800
     26 C26       -12.3414   -4.1552   53.7472 C.ar    1  ZINC000482540246   -0.1200
     27 C27       -12.9358   -4.0317   54.9891 C.ar    1  ZINC000482540246   -0.1200
     28 C28       -13.0682   -2.7849   55.5710 C.ar    1  ZINC000482540246   -0.1200
     29 C29       -12.6029   -1.6619   54.9128 C.ar    1  ZINC000482540246   -0.1000
     30 C30       -15.7167    0.7152   47.1456 C.ar    1  ZINC000482540246   -0.2100
     31 C31       -16.3450   -0.0135   46.1549 C.ar    1  ZINC000482540246    0.1500
     32 N32       -16.0811   -1.2953   45.9879 N.ar    1  ZINC000482540246   -0.5400
     33 H33       -15.3844   -4.9265   45.4152 H       1  ZINC000482540246    0.1000
     34 H34       -16.7388   -3.7885   45.6115 H       1  ZINC000482540246    0.0600
     35 H35       -15.3810   -3.3789   44.5358 H       1  ZINC000482540246    0.0600
     36 H36       -13.8449   -1.7861   48.4071 H       1  ZINC000482540246    0.1500
     37 H37       -12.7363    1.8209   47.7100 H       1  ZINC000482540246    0.0600
     38 H38       -14.2292    2.7338   48.0361 H       1  ZINC000482540246    0.0700
     39 H39       -12.9459    2.6575   49.2671 H       1  ZINC000482540246    0.0700
     40 H40       -12.5736   -0.6317   49.1090 H       1  ZINC000482540246    0.4000
     41 H41       -11.3343   -1.3060   50.9689 H       1  ZINC000482540246    0.4000
     42 H42        -9.7841    0.0187   54.1006 H       1  ZINC000482540246    0.0800
     43 H43        -9.5489   -1.4375   53.1045 H       1  ZINC000482540246    0.0800
     44 H44        -7.9542   -1.6567   51.3407 H       1  ZINC000482540246    0.1400
     45 H45        -5.5015   -1.6112   51.1349 H       1  ZINC000482540246    0.1300
     46 H46        -4.2584    0.4476   51.6537 H       1  ZINC000482540246    0.1400
     47 H47        -5.4628    2.4676   52.3812 H       1  ZINC000482540246    0.1400
     48 H48       -11.4155   -3.1282   52.1167 H       1  ZINC000482540246    0.1200
     49 H49       -12.2379   -5.1293   53.2924 H       1  ZINC000482540246    0.1200
     50 H50       -13.2969   -4.9094   55.5045 H       1  ZINC000482540246    0.1200
     51 H51       -13.5329   -2.6884   56.5411 H       1  ZINC000482540246    0.1200
     52 H52       -12.7064   -0.6878   55.3675 H       1  ZINC000482540246    0.1200
     53 H53       -15.9355    1.7651   47.2728 H       1  ZINC000482540246    0.1400
     54 H54       -17.0579    0.4731   45.5059 H       1  ZINC000482540246    0.1600
@<TRIPOS>BOND
     1     1     2    1
     2     1    33    1
     3     1    34    1
     4     1    35    1
     5     2     3    1
     6     3    32   ar
     7     3     4   ar
     8     4     5   ar
     9     4    36    1
    10     5     6    1
    11     5    30   ar
    12     6     7    1
    13     6     8    1
    14     6     9    1
    15     8    37    1
    16     8    38    1
    17     8    39    1
    18     9    10   am
    19     9    40    1
    20    10    11    2
    21    10    12   am
    22    12    13    1
    23    12    41    1
    24    13    14    1
    25    13    15    1
    26    13    24    1
    27    15    16    1
    28    15    42    1
    29    15    43    1
    30    16    17    1
    31    17    22   ar
    32    17    18   ar
    33    18    19   ar
    34    18    44    1
    35    19    20   ar
    36    19    45    1
    37    20    21   ar
    38    20    46    1
    39    21    22   ar
    40    21    47    1
    41    22    23    1
    42    24    29   ar
    43    24    25   ar
    44    25    26   ar
    45    25    48    1
    46    26    27   ar
    47    26    49    1
    48    27    28   ar
    49    27    50    1
    50    28    29   ar
    51    28    51    1
    52    29    52    1
    53    30    31   ar
    54    30    53    1
    55    31    32   ar
    56    31    54    1
@<TRIPOS>SUBSTRUCTURE
     1 ZINC000482540246        1 TEMP              0 ****  ****    0 ROOT


##########                                Name:    ZINC000621594459
##########                DOCK_Rotatable_Bonds:                  10
##########                         Heavy_Atoms:                  25
##########                    Molecular_Weight:             389.497
##########                DOCK_Rotatable_Bonds:                  10
##########                       Formal_Charge:         -7.7486e-07
##########                     HBond_Acceptors:                  10
##########                        HBond_Donors:                   3
##########                         Heavy_Atoms:                  25
##########                          Grid_Score:          -32.477768
##########                     Grid_vdw_energy:          -30.839788
##########                      Grid_es_energy:           -1.637979
##########           Internal_energy_repulsive:            8.402421

@<TRIPOS>MOLECULE
ZINC000621594459
 48 49 1 0 0
SMALL
USER_CHARGES


@<TRIPOS>ATOM
      1 C1          1.5234    1.4766   46.3936 C.3     1  ZINC000621594459   -0.1600
      2 C2          0.0856    1.4532   46.9166 C.3     1  ZINC000621594459    0.1300
      3 C3         -0.6043    0.1681   46.4547 C.3     1  ZINC000621594459   -0.1800
      4 N4          0.0978    1.5019   48.3807 N.am    1  ZINC000621594459   -1.1100
      5 S5         -1.1153    2.2832   49.1933 S.o2    1  ZINC000621594459    2.6200
      6 O6         -0.9836    3.6417   48.7979 O.2     1  ZINC000621594459   -0.9500
      7 O7         -2.2839    1.5386   48.8787 O.2     1  ZINC000621594459   -0.9400
      8 C8         -0.6871    2.0856   50.9449 C.3     1  ZINC000621594459   -0.6600
      9 C9         -1.7872    2.7019   51.8115 C.3     1  ZINC000621594459    0.1300
     10 N10        -2.9699    1.8379   51.7868 N.am    1  ZINC000621594459   -0.7200
     11 C11        -4.1851    2.3508   52.0634 C.2     1  ZINC000621594459    0.5600
     12 O12        -4.2999    3.5308   52.3320 O.2     1  ZINC000621594459   -0.5200
     13 C13        -5.3786    1.4785   52.0402 C.ar    1  ZINC000621594459   -0.1500
     14 C14        -5.2440    0.1136   51.7822 C.ar    1  ZINC000621594459   -0.0300
     15 C15        -6.3617   -0.6952   51.7624 C.ar    1  ZINC000621594459   -0.1400
     16 C16        -7.6138   -0.1556   51.9971 C.ar    1  ZINC000621594459    0.0100
     17 C17        -7.7542    1.1970   52.2530 C.ar    1  ZINC000621594459   -0.6800
     18 S18        -9.3536    1.8741   52.5500 S.o2    1  ZINC000621594459    2.7000
     19 O19        -9.4659    3.0190   51.7158 O.2     1  ZINC000621594459   -0.9400
     20 O20       -10.2654    0.7853   52.5024 O.2     1  ZINC000621594459   -0.9500
     21 N21        -9.3689    2.4290   54.1102 N.am    1  ZINC000621594459   -1.0900
     22 C22        -9.1262    1.5032   55.2193 C.3     1  ZINC000621594459    0.0800
     23 C23        -9.5252    1.9625   56.6231 C.3     1  ZINC000621594459   -0.1800
     24 C24       -10.3473    0.8892   55.9071 C.3     1  ZINC000621594459   -0.1900
     25 C25        -6.6442    2.0154   52.2818 C.ar    1  ZINC000621594459    0.0400
     26 H26         1.5143    1.4404   45.3042 H       1  ZINC000621594459    0.0700
     27 H27         2.0148    2.3921   46.7227 H       1  ZINC000621594459    0.0700
     28 H28         2.0651    0.6139   46.7813 H       1  ZINC000621594459    0.0600
     29 H29        -0.4561    2.3160   46.5289 H       1  ZINC000621594459    0.0900
     30 H30        -0.0625   -0.6946   46.8425 H       1  ZINC000621594459    0.0700
     31 H31        -1.6284    0.1514   46.8274 H       1  ZINC000621594459    0.0600
     32 H32        -0.6133    0.1319   45.3653 H       1  ZINC000621594459    0.0700
     33 H33         0.8165    1.0765   48.8742 H       1  ZINC000621594459    0.4200
     34 H34        -0.5920    1.0252   51.1783 H       1  ZINC000621594459    0.1400
     35 H35         0.2587    2.5884   51.1466 H       1  ZINC000621594459    0.1400
     36 H36        -1.4300    2.7997   52.8368 H       1  ZINC000621594459    0.0900
     37 H37        -2.0478    3.6861   51.4222 H       1  ZINC000621594459    0.0900
     38 H38        -2.8785    0.8966   51.5713 H       1  ZINC000621594459    0.4000
     39 H39        -4.2671   -0.3087   51.5982 H       1  ZINC000621594459    0.1300
     40 H40        -6.2590   -1.7516   51.5630 H       1  ZINC000621594459    0.1400
     41 H41        -8.4855   -0.7929   51.9801 H       1  ZINC000621594459    0.1500
     42 H42        -9.5386    3.3670   54.2897 H       1  ZINC000621594459    0.4200
     43 H43        -8.2354    0.8820   55.1268 H       1  ZINC000621594459    0.1400
     44 H44        -8.8965    1.6438   57.4547 H       1  ZINC000621594459    0.1100
     45 H45        -9.9681    2.9536   56.7215 H       1  ZINC000621594459    0.1000
     46 H46       -11.3312    1.1742   55.5343 H       1  ZINC000621594459    0.1000
     47 H47       -10.2597   -0.1358   56.2674 H       1  ZINC000621594459    0.1000
     48 H48        -6.7551    3.0708   52.4820 H       1  ZINC000621594459    0.1600
@<TRIPOS>BOND
     1     1     2    1
     2     1    26    1
     3     1    27    1
     4     1    28    1
     5     2     3    1
     6     2     4    1
     7     2    29    1
     8     3    30    1
     9     3    31    1
    10     3    32    1
    11     4     5   am
    12     4    33    1
    13     5     6    2
    14     5     7    2
    15     5     8    1
    16     8     9    1
    17     8    34    1
    18     8    35    1
    19     9    10    1
    20     9    36    1
    21     9    37    1
    22    10    11   am
    23    10    38    1
    24    11    12    2
    25    11    13    1
    26    13    25   ar
    27    13    14   ar
    28    14    15   ar
    29    14    39    1
    30    15    16   ar
    31    15    40    1
    32    16    17   ar
    33    16    41    1
    34    17    18    1
    35    17    25   ar
    36    18    19    2
    37    18    20    2
    38    18    21   am
    39    21    22    1
    40    21    42    1
    41    22    24    1
    42    22    23    1
    43    22    43    1
    44    23    24    1
    45    23    44    1
    46    23    45    1
    47    24    46    1
    48    24    47    1
    49    25    48    1
@<TRIPOS>SUBSTRUCTURE
     1 ZINC000621594459        1 TEMP              0 ****  ****    0 ROOT


##########                                Name:    ZINC001408567397
##########                DOCK_Rotatable_Bonds:                   9
##########                         Heavy_Atoms:                  24
##########                    Molecular_Weight:             336.434
##########                DOCK_Rotatable_Bonds:                   9
##########                       Formal_Charge:          -0.0199996
##########                     HBond_Acceptors:                   7
##########                        HBond_Donors:                   2
##########                         Heavy_Atoms:                  24
##########                          Grid_Score:          -32.446033
##########                     Grid_vdw_energy:          -32.855686
##########                      Grid_es_energy:            0.409652
##########           Internal_energy_repulsive:           20.354128

@<TRIPOS>MOLECULE
ZINC001408567397
 52 53 1 0 0
SMALL
USER_CHARGES


@<TRIPOS>ATOM
      1 C1          0.3784    3.8881   44.9768 C.3     1  ZINC001408567397   -0.0800
      2 C2          1.1573    2.7021   45.4848 C.2     1  ZINC001408567397    0.0900
      3 N3          2.4491    2.5276   45.3727 N.2     1  ZINC001408567397   -0.2900
      4 N4          2.7792    1.3052   45.9718 N.pl3   1  ZINC001408567397   -0.4700
      5 C5          1.6421    0.7544   46.4459 C.2     1  ZINC001408567397    0.1100
      6 C6          1.5267   -0.5638   47.1668 C.3     1  ZINC001408567397   -0.1000
      7 C7          0.6248    1.6007   46.1628 C.2     1  ZINC001408567397   -0.2200
      8 C8         -0.8265    1.3895   46.5090 C.3     1  ZINC001408567397   -0.0600
      9 C9         -1.1602    2.1547   47.7637 C.2     1  ZINC001408567397    0.5100
     10 O10        -1.0919    3.3655   47.7717 O.2     1  ZINC001408567397   -0.5300
     11 N11        -1.5343    1.4935   48.8769 N.am    1  ZINC001408567397   -0.7300
     12 C12        -1.8603    2.2375   50.0961 C.3     1  ZINC001408567397    0.1100
     13 C13        -3.0050    1.5366   50.8305 C.3     1  ZINC001408567397    0.1000
     14 N14        -3.5038    2.4055   51.8994 N.am    1  ZINC001408567397   -0.6200
     15 C15        -2.6984    3.5407   52.3565 C.3     1  ZINC001408567397    0.0700
     16 C16        -4.7037    2.1604   52.4623 C.2     1  ZINC001408567397    0.5100
     17 O17        -5.1172    2.8806   53.3461 O.2     1  ZINC001408567397   -0.5300
     18 C18        -5.5314    0.9917   51.9933 C.3     1  ZINC001408567397   -0.1300
     19 C19        -6.8538    0.9622   52.7621 C.3     1  ZINC001408567397   -0.1100
     20 H20        -6.6594    1.0941   53.8265 H       1  ZINC001408567397    0.0900
     21 C21        -7.7611    2.0912   52.2637 C.3     1  ZINC001408567397   -0.1200
     22 C22        -9.1097    2.0037   52.9846 C.3     1  ZINC001408567397   -0.1600
     23 C23        -9.7191    0.6200   52.7446 C.3     1  ZINC001408567397    0.0600
     24 O24        -8.8116   -0.3846   53.2024 O.3     1  ZINC001408567397   -0.3800
     25 C25        -7.5496   -0.3819   52.5320 C.3     1  ZINC001408567397    0.0600
     26 H26         0.3379    4.6546   45.7507 H       1  ZINC001408567397    0.0800
     27 H27         0.8682    4.2920   44.0908 H       1  ZINC001408567397    0.0700
     28 H28        -0.6341    3.5755   44.7216 H       1  ZINC001408567397    0.0800
     29 H29         3.6682    0.9222   46.0348 H       1  ZINC001408567397    0.4400
     30 H30         1.6419   -0.4031   48.2387 H       1  ZINC001408567397    0.0800
     31 H31         0.5487   -1.0022   46.9682 H       1  ZINC001408567397    0.0900
     32 H32         2.3060   -1.2398   46.8149 H       1  ZINC001408567397    0.0700
     33 H33        -1.4510    1.7453   45.6896 H       1  ZINC001408567397    0.1000
     34 H34        -1.0106    0.3275   46.6714 H       1  ZINC001408567397    0.1000
     35 H35        -1.5877    0.5250   48.8709 H       1  ZINC001408567397    0.4000
     36 H36        -0.9839    2.2770   50.7430 H       1  ZINC001408567397    0.0700
     37 H37        -2.1638    3.2508   49.8332 H       1  ZINC001408567397    0.0700
     38 H38        -3.8114    1.3248   50.1284 H       1  ZINC001408567397    0.0800
     39 H39        -2.6430    0.6028   51.2606 H       1  ZINC001408567397    0.0900
     40 H40        -2.9500    4.4242   51.7700 H       1  ZINC001408567397    0.0600
     41 H41        -2.9053    3.7325   53.4093 H       1  ZINC001408567397    0.0800
     42 H42        -1.6406    3.3099   52.2304 H       1  ZINC001408567397    0.0800
     43 H43        -5.7331    1.0938   50.9271 H       1  ZINC001408567397    0.1000
     44 H44        -4.9861    0.0650   52.1728 H       1  ZINC001408567397    0.1000
     45 H45        -7.2957    3.0537   52.4763 H       1  ZINC001408567397    0.0700
     46 H46        -7.9145    1.9884   51.1895 H       1  ZINC001408567397    0.0600
     47 H47        -8.9618    2.1561   54.0538 H       1  ZINC001408567397    0.0700
     48 H48        -9.7809    2.7697   52.5961 H       1  ZINC001408567397    0.0700
     49 H49       -10.6588    0.5370   53.2905 H       1  ZINC001408567397    0.0900
     50 H50        -9.9041    0.4842   51.6790 H       1  ZINC001408567397    0.0500
     51 H51        -7.7053   -0.5308   51.4634 H       1  ZINC001408567397    0.0400
     52 H52        -6.9278   -1.1867   52.9244 H       1  ZINC001408567397    0.1100
@<TRIPOS>BOND
     1     1     2    1
     2     1    26    1
     3     1    27    1
     4     1    28    1
     5     2     7    1
     6     2     3    2
     7     3     4    1
     8     4     5    1
     9     4    29    1
    10     5     6    1
    11     5     7    2
    12     6    30    1
    13     6    31    1
    14     6    32    1
    15     7     8    1
    16     8     9    1
    17     8    33    1
    18     8    34    1
    19     9    10    2
    20     9    11   am
    21    11    12    1
    22    11    35    1
    23    12    13    1
    24    12    36    1
    25    12    37    1
    26    13    14    1
    27    13    38    1
    28    13    39    1
    29    14    15    1
    30    14    16   am
    31    15    40    1
    32    15    41    1
    33    15    42    1
    34    16    17    2
    35    16    18    1
    36    18    19    1
    37    18    43    1
    38    18    44    1
    39    19    20    1
    40    19    25    1
    41    19    21    1
    42    21    22    1
    43    21    45    1
    44    21    46    1
    45    22    23    1
    46    22    47    1
    47    22    48    1
    48    23    24    1
    49    23    49    1
    50    23    50    1
    51    24    25    1
    52    25    51    1
    53    25    52    1
@<TRIPOS>SUBSTRUCTURE
     1 ZINC001408567397        1 TEMP              0 ****  ****    0 ROOT


##########                                Name:    ZINC001492779707
##########                DOCK_Rotatable_Bonds:                   8
##########                         Heavy_Atoms:                  27
##########                    Molecular_Weight:             374.483
##########                DOCK_Rotatable_Bonds:                   8
##########                       Formal_Charge:           0.0199998
##########                     HBond_Acceptors:                   7
##########                        HBond_Donors:                   0
##########                         Heavy_Atoms:                  27
##########                          Grid_Score:          -32.419792
##########                     Grid_vdw_energy:          -31.789146
##########                      Grid_es_energy:           -0.630648
##########           Internal_energy_repulsive:           10.690950

@<TRIPOS>MOLECULE
ZINC001492779707
 57 59 1 0 0
SMALL
USER_CHARGES


@<TRIPOS>ATOM
      1 C1        -14.5753   -4.0847   57.7757 C.3     1  ZINC001492779707   -0.0700
      2 C2        -13.9272   -4.0219   56.4167 C.2     1  ZINC001492779707    0.1800
      3 N3        -14.2395   -4.7442   55.3782 N.2     1  ZINC001492779707   -0.2900
      4 N4        -13.4875   -4.4335   54.3831 N.2     1  ZINC001492779707   -0.3100
      5 C5        -12.6484   -3.4885   54.7365 C.2     1  ZINC001492779707    0.3400
      6 N6        -11.6859   -2.8988   53.9326 N.3     1  ZINC001492779707   -0.4600
      7 C7        -11.1476   -3.8620   52.9628 C.3     1  ZINC001492779707    0.0300
      8 C8        -12.2224   -1.7119   53.2534 C.3     1  ZINC001492779707    0.1100
      9 C9        -11.4615   -0.4904   53.7005 C.ar    1  ZINC001492779707   -0.0400
     10 C10       -12.1136    0.5162   54.3882 C.ar    1  ZINC001492779707   -0.1300
     11 C11       -11.4181    1.6384   54.7999 C.ar    1  ZINC001492779707   -0.0800
     12 C12       -10.0698    1.7562   54.5247 C.ar    1  ZINC001492779707   -0.2100
     13 C13        -9.4130    0.7473   53.8347 C.ar    1  ZINC001492779707    0.1300
     14 O14        -8.0861    0.8606   53.5632 O.3     1  ZINC001492779707   -0.3100
     15 C15        -7.6998    0.8213   52.1879 C.3     1  ZINC001492779707    0.0800
     16 C16        -7.5744    2.2491   51.6524 C.3     1  ZINC001492779707   -0.1500
     17 C17        -6.3530    0.1073   52.0567 C.3     1  ZINC001492779707   -0.1800
     18 C18       -10.1115   -0.3798   53.4278 C.ar    1  ZINC001492779707   -0.1400
     19 N19       -12.9065   -3.1922   56.0431 N.pl3   1  ZINC001492779707   -0.4600
     20 C20       -12.2250   -2.1981   56.8760 C.3     1  ZINC001492779707    0.1200
     21 C21       -11.1080   -2.8779   57.6705 C.3     1  ZINC001492779707   -0.1200
     22 C22       -10.3725   -1.8332   58.5122 C.3     1  ZINC001492779707    0.0600
     23 H23        -9.9684   -1.0588   57.8603 H       1  ZINC001492779707    0.0800
     24 C24       -11.3466   -1.2036   59.5122 C.3     1  ZINC001492779707    0.0300
     25 O25       -10.6282   -0.3107   60.3687 O.3     1  ZINC001492779707   -0.3800
     26 C26        -9.5611   -0.9391   61.0852 C.3     1  ZINC001492779707    0.0200
     27 C27        -8.5869   -1.5687   60.0853 C.3     1  ZINC001492779707    0.0300
     28 O28        -9.3044   -2.4614   59.2276 O.3     1  ZINC001492779707   -0.3800
     29 H29       -15.4152   -3.3908   57.8102 H       1  ZINC001492779707    0.0900
     30 H30       -14.9329   -5.0976   57.9613 H       1  ZINC001492779707    0.1000
     31 H31       -13.8466   -3.8112   58.5388 H       1  ZINC001492779707    0.0800
     32 H32       -11.9308   -4.1461   52.2599 H       1  ZINC001492779707    0.0500
     33 H33       -10.3197   -3.4066   52.4195 H       1  ZINC001492779707    0.0900
     34 H34       -10.7931   -4.7481   53.4893 H       1  ZINC001492779707    0.0700
     35 H35       -12.1166   -1.8314   52.1752 H       1  ZINC001492779707    0.0700
     36 H36       -13.2767   -1.5952   53.5043 H       1  ZINC001492779707    0.0900
     37 H37       -13.1679    0.4261   54.6040 H       1  ZINC001492779707    0.1200
     38 H38       -11.9299    2.4235   55.3366 H       1  ZINC001492779707    0.1300
     39 H39        -9.5271    2.6329   54.8461 H       1  ZINC001492779707    0.1300
     40 H40        -8.4539    0.2829   51.6139 H       1  ZINC001492779707    0.0700
     41 H41        -6.8203    2.7875   52.2265 H       1  ZINC001492779707    0.0700
     42 H42        -7.2797    2.2191   50.6034 H       1  ZINC001492779707    0.0800
     43 H43        -8.5339    2.7578   51.7460 H       1  ZINC001492779707    0.0700
     44 H44        -6.4423   -0.9098   52.4382 H       1  ZINC001492779707    0.0600
     45 H45        -6.0584    0.0773   51.0076 H       1  ZINC001492779707    0.0700
     46 H46        -5.5989    0.6457   52.6308 H       1  ZINC001492779707    0.0700
     47 H47        -9.6026   -1.1664   52.8905 H       1  ZINC001492779707    0.1300
     48 H48       -11.7985   -1.4223   56.2401 H       1  ZINC001492779707    0.1000
     49 H49       -12.9404   -1.7501   57.5655 H       1  ZINC001492779707    0.1000
     50 H50       -11.5375   -3.6356   58.3257 H       1  ZINC001492779707    0.0900
     51 H51       -10.4067   -3.3486   56.9814 H       1  ZINC001492779707    0.0800
     52 H52       -12.1158   -0.6509   58.9727 H       1  ZINC001492779707    0.1100
     53 H53       -11.8116   -1.9871   60.1105 H       1  ZINC001492779707    0.0600
     54 H54        -9.0371   -0.1948   61.6849 H       1  ZINC001492779707    0.1100
     55 H55        -9.9660   -1.7136   61.7364 H       1  ZINC001492779707    0.0600
     56 H56        -8.1219   -0.7852   59.4869 H       1  ZINC001492779707    0.0600
     57 H57        -7.8177   -2.1214   60.6248 H       1  ZINC001492779707    0.1100
@<TRIPOS>BOND
     1     1     2    1
     2     1    29    1
     3     1    30    1
     4     1    31    1
     5     2    19    1
     6     2     3    2
     7     3     4    1
     8     4     5    2
     9     5     6    1
    10     5    19    1
    11     6     7    1
    12     6     8    1
    13     7    32    1
    14     7    33    1
    15     7    34    1
    16     8     9    1
    17     8    35    1
    18     8    36    1
    19     9    18   ar
    20     9    10   ar
    21    10    11   ar
    22    10    37    1
    23    11    12   ar
    24    11    38    1
    25    12    13   ar
    26    12    39    1
    27    13    14    1
    28    13    18   ar
    29    14    15    1
    30    15    16    1
    31    15    17    1
    32    15    40    1
    33    16    41    1
    34    16    42    1
    35    16    43    1
    36    17    44    1
    37    17    45    1
    38    17    46    1
    39    18    47    1
    40    19    20    1
    41    20    21    1
    42    20    48    1
    43    20    49    1
    44    21    22    1
    45    21    50    1
    46    21    51    1
    47    22    23    1
    48    22    28    1
    49    22    24    1
    50    24    25    1
    51    24    52    1
    52    24    53    1
    53    25    26    1
    54    26    27    1
    55    26    54    1
    56    26    55    1
    57    27    28    1
    58    27    56    1
    59    27    57    1
@<TRIPOS>SUBSTRUCTURE
     1 ZINC001492779707        1 TEMP              0 ****  ****    0 ROOT


##########                                Name:    ZINC001191196975
##########                DOCK_Rotatable_Bonds:                  14
##########                         Heavy_Atoms:                  24
##########                    Molecular_Weight:             339.438
##########                DOCK_Rotatable_Bonds:                  14
##########                       Formal_Charge:          0.00999969
##########                     HBond_Acceptors:                   8
##########                        HBond_Donors:                   4
##########                         Heavy_Atoms:                  24
##########                          Grid_Score:          -32.406384
##########                     Grid_vdw_energy:          -28.092535
##########                      Grid_es_energy:           -4.313849
##########           Internal_energy_repulsive:           12.781843

@<TRIPOS>MOLECULE
ZINC001191196975
 53 53 1 0 0
SMALL
USER_CHARGES


@<TRIPOS>ATOM
      1 C1          3.7661   -0.2613   48.6402 C.2     1  ZINC001191196975   -0.1600
      2 C2          3.6049   -0.1632   47.3440 C.2     1  ZINC001191196975   -0.1800
      3 C3          2.2549   -0.4314   46.7301 C.3     1  ZINC001191196975    0.1500
      4 N4          1.4596    0.7988   46.7425 N.am    1  ZINC001191196975   -0.7300
      5 C5          0.1602    0.7646   46.3866 C.2     1  ZINC001191196975    0.5100
      6 O6         -0.3511   -0.2847   46.0575 O.2     1  ZINC001191196975   -0.5200
      7 C7         -0.6575    2.0305   46.3976 C.3     1  ZINC001191196975    0.0300
      8 N8          0.0013    3.0316   47.2473 N.3     1  ZINC001191196975   -0.5100
      9 C9          0.3741    4.2200   46.4683 C.3     1  ZINC001191196975    0.0200
     10 C10        -0.8496    3.3956   48.3882 C.3     1  ZINC001191196975    0.0700
     11 H11        -1.7689    3.8740   48.0503 H       1  ZINC001191196975    0.0600
     12 C12        -0.0836    4.3045   49.3855 C.3     1  ZINC001191196975   -0.1200
     13 C13        -0.7919    4.0197   50.7267 C.3     1  ZINC001191196975    0.1000
     14 N14        -1.4463    2.7088   50.6051 N.am    1  ZINC001191196975   -0.6200
     15 C15        -2.1880    2.1098   51.5576 C.2     1  ZINC001191196975    0.5300
     16 O16        -2.6815    1.0221   51.3473 O.2     1  ZINC001191196975   -0.5400
     17 C17        -2.4041    2.7914   52.8841 C.3     1  ZINC001191196975   -0.1300
     18 C18        -3.8043    3.4073   52.9190 C.3     1  ZINC001191196975   -0.1000
     19 C19        -3.8611    4.4838   54.0046 C.3     1  ZINC001191196975   -0.1300
     20 C20        -5.3196    4.8570   54.2771 C.3     1  ZINC001191196975    0.1400
     21 N21        -5.8741    3.9537   55.2884 N.am    1  ZINC001191196975   -0.7500
     22 C22        -6.8046    3.0428   54.9409 C.2     1  ZINC001191196975    0.7000
     23 N23        -7.3135    2.2108   55.8710 N.am    1  ZINC001191196975   -0.8700
     24 O24        -7.1849    2.9716   53.7882 O.2     1  ZINC001191196975   -0.5900
     25 C25        -1.1583    2.1583   49.2676 C.3     1  ZINC001191196975    0.1100
     26 H26         2.9316   -0.5346   49.2691 H       1  ZINC001191196975    0.1000
     27 H27         4.7346   -0.0734   49.0797 H       1  ZINC001191196975    0.1000
     28 H28         4.4393    0.1101   46.7151 H       1  ZINC001191196975    0.1200
     29 H29         2.3842   -0.7702   45.7022 H       1  ZINC001191196975    0.0800
     30 H30         1.7412   -1.2021   47.3048 H       1  ZINC001191196975    0.0700
     31 H31         1.8682    1.6378   47.0068 H       1  ZINC001191196975    0.4000
     32 H32        -0.7437    2.4163   45.3818 H       1  ZINC001191196975    0.0700
     33 H33        -1.6515    1.8177   46.7909 H       1  ZINC001191196975    0.1100
     34 H34        -0.5027    4.6011   45.9448 H       1  ZINC001191196975    0.0200
     35 H35         0.7590    4.9880   47.1391 H       1  ZINC001191196975    0.0700
     36 H36         1.1427    3.9526   45.7431 H       1  ZINC001191196975    0.0900
     37 H37         0.9676    4.0209   49.4366 H       1  ZINC001191196975    0.0900
     38 H38        -0.1880    5.3538   49.1093 H       1  ZINC001191196975    0.0800
     39 H39        -0.0604    3.9955   51.5344 H       1  ZINC001191196975    0.0700
     40 H40        -1.5381    4.7898   50.9226 H       1  ZINC001191196975    0.0700
     41 H41        -2.3083    2.0612   53.6877 H       1  ZINC001191196975    0.0900
     42 H42        -1.6588    3.5758   53.0152 H       1  ZINC001191196975    0.0900
     43 H43        -4.0282    3.8554   51.9509 H       1  ZINC001191196975    0.0800
     44 H44        -4.5374    2.6310   53.1384 H       1  ZINC001191196975    0.0800
     45 H45        -3.4068    4.1020   54.9190 H       1  ZINC001191196975    0.0700
     46 H46        -3.3166    5.3667   53.6697 H       1  ZINC001191196975    0.0700
     47 H47        -5.3704    5.8836   54.6398 H       1  ZINC001191196975    0.0700
     48 H48        -5.8955    4.7683   53.3558 H       1  ZINC001191196975    0.0700
     49 H49        -5.5716    4.0113   56.2083 H       1  ZINC001191196975    0.4000
     50 H50        -7.9824    1.5543   55.6206 H       1  ZINC001191196975    0.4000
     51 H51        -7.0110    2.2684   56.7908 H       1  ZINC001191196975    0.4200
     52 H52        -2.0270    1.6247   48.8819 H       1  ZINC001191196975    0.0800
     53 H53        -0.2929    1.4969   49.3079 H       1  ZINC001191196975    0.0800
@<TRIPOS>BOND
     1     1     2    2
     2     1    26    1
     3     1    27    1
     4     2     3    1
     5     2    28    1
     6     3     4    1
     7     3    29    1
     8     3    30    1
     9     4     5   am
    10     4    31    1
    11     5     6    2
    12     5     7    1
    13     7     8    1
    14     7    32    1
    15     7    33    1
    16     8     9    1
    17     8    10    1
    18     9    34    1
    19     9    35    1
    20     9    36    1
    21    10    11    1
    22    10    25    1
    23    10    12    1
    24    12    13    1
    25    12    37    1
    26    12    38    1
    27    13    14    1
    28    13    39    1
    29    13    40    1
    30    14    15   am
    31    14    25    1
    32    15    16    2
    33    15    17    1
    34    17    18    1
    35    17    41    1
    36    17    42    1
    37    18    19    1
    38    18    43    1
    39    18    44    1
    40    19    20    1
    41    19    45    1
    42    19    46    1
    43    20    21    1
    44    20    47    1
    45    20    48    1
    46    21    22   am
    47    21    49    1
    48    22    23   am
    49    22    24    2
    50    23    50    1
    51    23    51    1
    52    25    52    1
    53    25    53    1
@<TRIPOS>SUBSTRUCTURE
     1 ZINC001191196975        1 TEMP              0 ****  ****    0 ROOT


##########                                Name:    ZINC000284209281
##########                DOCK_Rotatable_Bonds:                   8
##########                         Heavy_Atoms:                  26
##########                    Molecular_Weight:             353.424
##########                DOCK_Rotatable_Bonds:                   8
##########                       Formal_Charge:          0.00999954
##########                     HBond_Acceptors:                   7
##########                        HBond_Donors:                   1
##########                         Heavy_Atoms:                  26
##########                          Grid_Score:          -32.404404
##########                     Grid_vdw_energy:          -32.910980
##########                      Grid_es_energy:            0.506576
##########           Internal_energy_repulsive:           13.824508

@<TRIPOS>MOLECULE
ZINC000284209281
 49 51 1 0 0
SMALL
USER_CHARGES


@<TRIPOS>ATOM
      1 O1        -10.2095    0.9253   52.3133 O.2     1  <0>        -0.5100
      2 C2         -9.8225   -0.2248   52.3112 C.2     1  <0>         0.5100
      3 N3         -8.5102   -0.4945   52.4576 N.am    1  <0>        -0.7000
      4 C4         -7.5501    0.6011   52.6130 C.3     1  <0>         0.1200
      5 C5         -6.4016    0.4177   51.6188 C.3     1  <0>        -0.1000
      6 C6         -5.3204    1.4265   51.9088 C.ar    1  <0>        -0.0400
      7 C7         -3.9974    1.1602   51.5904 C.ar    1  <0>        -0.1700
      8 C8         -3.0329    2.1093   51.8713 C.ar    1  <0>         0.1000
      9 N9         -3.3589    3.2558   52.4353 N.ar    1  <0>        -0.4900
     10 C10        -4.6065    3.5430   52.7517 C.ar    1  <0>         0.1000
     11 C11        -5.6254    2.6452   52.4952 C.ar    1  <0>        -0.1700
     12 C12       -10.8019   -1.3425   52.1527 C.2     1  <0>         0.5100
     13 O13       -10.9473   -1.8731   51.0711 O.2     1  <0>        -0.5200
     14 N14       -11.5239   -1.7610   53.2111 N.am    1  <0>        -0.5800
     15 C15       -12.4888   -2.8630   53.0784 C.3     1  <0>         0.0800
     16 C16       -12.2063   -3.8924   54.1779 C.3     1  <0>         0.0400
     17 N17       -12.2060   -3.2210   55.4844 N.3     1  <0>        -0.5300
     18 C18       -12.1099   -4.1973   56.5779 C.3     1  <0>         0.1000
     19 C19       -12.8745   -3.6895   57.7732 C.ar    1  <0>         0.1300
     20 C20       -12.2339   -2.8989   58.7081 C.ar    1  <0>        -0.1500
     21 C21       -12.9467   -2.4364   59.8041 C.ar    1  <0>        -0.0700
     22 C22       -14.2826   -2.7884   59.9186 C.ar    1  <0>        -0.1700
     23 C23       -14.8559   -3.5829   58.9435 C.ar    1  <0>         0.1000
     24 N24       -14.1486   -4.0004   57.9120 N.ar    1  <0>        -0.4800
     25 C25       -11.1295   -2.2253   55.5716 C.3     1  <0>         0.0400
     26 C26       -11.3635   -1.1316   54.5307 C.3     1  <0>         0.1100
     27 H27        -8.2013   -1.4140   52.4600 H       1  <0>         0.4100
     28 H28        -8.0488    1.5512   52.4209 H       1  <0>         0.0800
     29 H29        -7.1554    0.5969   53.6290 H       1  <0>         0.0800
     30 H30        -5.9948   -0.5889   51.7154 H       1  <0>         0.0900
     31 H31        -6.7725    0.5640   50.6043 H       1  <0>         0.0900
     32 H32        -3.7240    0.2228   51.1290 H       1  <0>         0.1400
     33 H33        -2.0002    1.9096   51.6263 H       1  <0>         0.1600
     34 H34        -4.8350    4.4925   53.2130 H       1  <0>         0.1600
     35 H35        -6.6452    2.8864   52.7563 H       1  <0>         0.1400
     36 H36       -13.5023   -2.4777   53.1893 H       1  <0>         0.0800
     37 H37       -12.3773   -3.3317   52.1006 H       1  <0>         0.1400
     38 H38       -12.9791   -4.6609   54.1640 H       1  <0>         0.0900
     39 H39       -11.2330   -4.3517   54.0047 H       1  <0>         0.0400
     40 H40       -12.5319   -5.1485   56.2538 H       1  <0>         0.0900
     41 H41       -11.0634   -4.3375   56.8488 H       1  <0>         0.0600
     42 H42       -11.1913   -2.6447   58.5870 H       1  <0>         0.1400
     43 H43       -12.4721   -1.8171   60.5508 H       1  <0>         0.1400
     44 H44       -14.8681   -2.4464   60.7592 H       1  <0>         0.1400
     45 H45       -15.8960   -3.8618   59.0256 H       1  <0>         0.1600
     46 H46       -11.1214   -1.7847   56.5685 H       1  <0>         0.1000
     47 H47       -10.1712   -2.7077   55.3791 H       1  <0>         0.0400
     48 H48       -10.5100   -0.4538   54.5136 H       1  <0>         0.1000
     49 H49       -12.2692   -0.5782   54.7784 H       1  <0>         0.0800
@<TRIPOS>BOND
     1     1     2    2
     2     2     3   am
     3     2    12    1
     4     3     4    1
     5     3    27    1
     6     4     5    1
     7     4    28    1
     8     4    29    1
     9     5     6    1
    10     5    30    1
    11     5    31    1
    12     6    11   ar
    13     6     7   ar
    14     7     8   ar
    15     7    32    1
    16     8     9   ar
    17     8    33    1
    18     9    10   ar
    19    10    11   ar
    20    10    34    1
    21    11    35    1
    22    12    13    2
    23    12    14   am
    24    14    26    1
    25    14    15    1
    26    15    16    1
    27    15    36    1
    28    15    37    1
    29    16    17    1
    30    16    38    1
    31    16    39    1
    32    17    18    1
    33    17    25    1
    34    18    19    1
    35    18    40    1
    36    18    41    1
    37    19    24   ar
    38    19    20   ar
    39    20    21   ar
    40    20    42    1
    41    21    22   ar
    42    21    43    1
    43    22    23   ar
    44    22    44    1
    45    23    24   ar
    46    23    45    1
    47    25    26    1
    48    25    46    1
    49    25    47    1
    50    26    48    1
    51    26    49    1
@<TRIPOS>SUBSTRUCTURE
     1 <0>         1 TEMP              0 ****  ****    0 ROOT


##########                                Name:    ZINC001004075025
##########                DOCK_Rotatable_Bonds:                   8
##########                         Heavy_Atoms:                  25
##########                    Molecular_Weight:              349.43
##########                DOCK_Rotatable_Bonds:                   8
##########                       Formal_Charge:         -0.00999999
##########                     HBond_Acceptors:                   7
##########                        HBond_Donors:                   1
##########                         Heavy_Atoms:                  25
##########                          Grid_Score:          -32.399586
##########                     Grid_vdw_energy:          -31.636444
##########                      Grid_es_energy:           -0.763140
##########           Internal_energy_repulsive:           14.256388

@<TRIPOS>MOLECULE
ZINC001004075025
 52 54 1 0 0
SMALL
USER_CHARGES


@<TRIPOS>ATOM
      1 C1         -1.1465    0.1082   46.1381 C.3     1  ZINC001004075025   -0.1500
      2 C2          0.2637   -0.4163   46.4162 C.3     1  ZINC001004075025   -0.1200
      3 C3          0.9277    0.4501   47.4882 C.3     1  ZINC001004075025    0.0800
      4 H4          1.3361   -0.1767   48.2809 H       1  ZINC001004075025    0.0700
      5 C5          2.0460    1.3196   46.8602 C.3     1  ZINC001004075025   -0.1500
      6 C6          2.1080    2.4961   47.8722 C.3     1  ZINC001004075025   -0.1400
      7 C7          0.6328    2.6328   48.3064 C.3     1  ZINC001004075025    0.0700
      8 H8          0.1542    3.4338   47.7429 H       1  ZINC001004075025    0.1100
      9 C9          0.5597    2.9312   49.7817 C.2     1  ZINC001004075025    0.5300
     10 O10         1.5621    3.2467   50.3870 O.2     1  ZINC001004075025   -0.5200
     11 N11        -0.6197    2.8474   50.4286 N.am    1  ZINC001004075025   -0.6500
     12 C12        -1.0893    3.0592   51.8061 C.3     1  ZINC001004075025    0.1100
     13 C13        -2.2136    2.0542   51.5197 C.3     1  ZINC001004075025   -0.1400
     14 C14        -3.5704    2.4463   52.1081 C.3     1  ZINC001004075025    0.1300
     15 N15        -4.4890    1.3086   52.0178 N.am    1  ZINC001004075025   -0.7200
     16 C16        -5.8140    1.4981   52.1763 C.2     1  ZINC001004075025    0.6000
     17 O17        -6.2470    2.6136   52.3928 O.2     1  ZINC001004075025   -0.5300
     18 C18        -6.7380    0.3531   52.0870 C.2     1  ZINC001004075025   -0.2700
     19 C19        -8.0429    0.2711   52.5080 C.2     1  ZINC001004075025    0.0700
     20 C20        -8.8474    1.3578   53.1736 C.3     1  ZINC001004075025   -0.0300
     21 C21        -9.4341    2.2842   52.1066 C.3     1  ZINC001004075025   -0.1500
     22 C22        -9.9831    0.7286   53.9831 C.3     1  ZINC001004075025   -0.1500
     23 O23        -8.4567   -0.9626   52.2103 O.3     1  ZINC001004075025    0.1000
     24 N24        -7.6065   -1.6328   51.6776 N.2     1  ZINC001004075025   -0.3500
     25 C25        -6.4924   -0.9815   51.5194 C.2     1  ZINC001004075025    0.0200
     26 C26        -2.0046    2.5102   50.0663 C.3     1  ZINC001004075025    0.1100
     27 O27        -0.0182    1.3856   48.0297 O.3     1  ZINC001004075025   -0.3400
     28 H28        -1.6197   -0.5090   45.3743 H       1  ZINC001004075025    0.0600
     29 H29        -1.7360    0.0685   47.0540 H       1  ZINC001004075025    0.0500
     30 H30        -1.0884    1.1387   45.7878 H       1  ZINC001004075025    0.0600
     31 H31         0.2055   -1.4469   46.7664 H       1  ZINC001004075025    0.0800
     32 H32         0.8532   -0.3766   45.5002 H       1  ZINC001004075025    0.0700
     33 H33         2.9921    0.7793   46.8275 H       1  ZINC001004075025    0.0900
     34 H34         1.7611    1.6694   45.8680 H       1  ZINC001004075025    0.0900
     35 H35         2.7409    2.2431   48.7227 H       1  ZINC001004075025    0.0800
     36 H36         2.4554    3.4078   47.3863 H       1  ZINC001004075025    0.0900
     37 H37        -0.3834    2.7169   52.5628 H       1  ZINC001004075025    0.0900
     38 H38        -1.4487    4.0715   51.9913 H       1  ZINC001004075025    0.0900
     39 H39        -1.9444    1.0157   51.7122 H       1  ZINC001004075025    0.1100
     40 H40        -3.4450    2.7298   53.1532 H       1  ZINC001004075025    0.0800
     41 H41        -3.9790    3.2884   51.5497 H       1  ZINC001004075025    0.0800
     42 H42        -4.1436    0.4190   51.8438 H       1  ZINC001004075025    0.4000
     43 H43        -8.2022    1.9321   53.8384 H       1  ZINC001004075025    0.1300
     44 H44       -10.0793    1.7100   51.4418 H       1  ZINC001004075025    0.0600
     45 H45       -10.0160    3.0702   52.5881 H       1  ZINC001004075025    0.0700
     46 H46        -8.6251    2.7325   51.5300 H       1  ZINC001004075025    0.0600
     47 H47       -10.6282    0.1543   53.3182 H       1  ZINC001004075025    0.0600
     48 H48        -9.5650    0.0685   54.7432 H       1  ZINC001004075025    0.0600
     49 H49       -10.5649    1.5145   54.4645 H       1  ZINC001004075025    0.0700
     50 H50        -5.5788   -1.3453   51.0726 H       1  ZINC001004075025    0.2000
     51 H51        -2.6080    3.3754   49.7918 H       1  ZINC001004075025    0.0900
     52 H52        -2.0764    1.6987   49.3421 H       1  ZINC001004075025    0.0800
@<TRIPOS>BOND
     1     1     2    1
     2     1    28    1
     3     1    29    1
     4     1    30    1
     5     2     3    1
     6     2    31    1
     7     2    32    1
     8     3     4    1
     9     3    27    1
    10     3     5    1
    11     5     6    1
    12     5    33    1
    13     5    34    1
    14     6     7    1
    15     6    35    1
    16     6    36    1
    17     7     8    1
    18     7     9    1
    19     7    27    1
    20     9    10    2
    21     9    11   am
    22    11    26    1
    23    11    12    1
    24    12    13    1
    25    12    37    1
    26    12    38    1
    27    13    14    1
    28    13    26    1
    29    13    39    1
    30    14    15    1
    31    14    40    1
    32    14    41    1
    33    15    16   am
    34    15    42    1
    35    16    17    2
    36    16    18    1
    37    18    25    1
    38    18    19    2
    39    19    20    1
    40    19    23    1
    41    20    21    1
    42    20    22    1
    43    20    43    1
    44    21    44    1
    45    21    45    1
    46    21    46    1
    47    22    47    1
    48    22    48    1
    49    22    49    1
    50    23    24    1
    51    24    25    2
    52    25    50    1
    53    26    51    1
    54    26    52    1
@<TRIPOS>SUBSTRUCTURE
     1 ZINC001004075025        1 TEMP              0 ****  ****    0 ROOT


##########                                Name:    ZINC001119787528
##########                DOCK_Rotatable_Bonds:                   6
##########                         Heavy_Atoms:                  27
##########                    Molecular_Weight:             362.434
##########                DOCK_Rotatable_Bonds:                   6
##########                       Formal_Charge:          -0.0199998
##########                     HBond_Acceptors:                   7
##########                        HBond_Donors:                   1
##########                         Heavy_Atoms:                  27
##########                          Grid_Score:          -32.357903
##########                     Grid_vdw_energy:          -31.112551
##########                      Grid_es_energy:           -1.245351
##########           Internal_energy_repulsive:           10.474456

@<TRIPOS>MOLECULE
ZINC001119787528
 49 52 1 0 0
SMALL
USER_CHARGES


@<TRIPOS>ATOM
      1 C1          1.1217    2.6883   45.9975 C.3     1  ZINC001119787528   -0.1700
      2 C2         -0.3122    3.1981   46.1548 C.3     1  ZINC001119787528    0.1000
      3 N3         -0.4775    3.7878   47.4858 N.pl3   1  ZINC001119787528   -0.4500
      4 C4         -0.1728    5.0554   47.8473 C.2     1  ZINC001119787528    0.1800
      5 N5         -0.4562    5.2112   49.1143 N.2     1  ZINC001119787528   -0.4800
      6 C6         -0.9437    4.0661   49.5967 C.2     1  ZINC001119787528   -0.0200
      7 C7         -0.9724    3.1650   48.5915 C.2     1  ZINC001119787528   -0.0100
      8 C8         -1.4655    1.7476   48.7202 C.3     1  ZINC001119787528   -0.0600
      9 C9         -1.4953    1.3674   50.2062 C.3     1  ZINC001119787528    0.1400
     10 N10        -2.0972    2.4685   50.9727 N.am    1  ZINC001119787528   -0.6200
     11 C11        -3.2615    2.2966   51.6295 C.2     1  ZINC001119787528    0.7200
     12 O12        -3.8269    1.2211   51.5928 O.2     1  ZINC001119787528   -0.5600
     13 N13        -3.7988    3.3170   52.3271 N.am    1  ZINC001119787528   -0.6600
     14 C14        -4.9996    3.1397   53.0045 C.ar    1  ZINC001119787528    0.4200
     15 C15        -5.0471    3.2230   54.3962 C.ar    1  ZINC001119787528   -0.2500
     16 C16        -6.2650    3.0397   55.0232 C.ar    1  ZINC001119787528    0.1600
     17 N17        -7.3394    2.7929   54.2883 N.ar    1  ZINC001119787528   -0.5300
     18 C18        -7.2611    2.7204   52.9746 C.ar    1  ZINC001119787528    0.3500
     19 C19        -8.5105    2.4378   52.1807 C.3     1  ZINC001119787528   -0.0100
     20 C20        -8.8205    0.9642   52.2398 C.ar    1  ZINC001119787528   -0.0800
     21 C21       -10.1294    0.5379   52.3661 C.ar    1  ZINC001119787528   -0.1000
     22 C22       -10.4138   -0.8138   52.4203 C.ar    1  ZINC001119787528   -0.1200
     23 C23        -9.3895   -1.7392   52.3479 C.ar    1  ZINC001119787528   -0.1200
     24 C24        -8.0806   -1.3128   52.2207 C.ar    1  ZINC001119787528   -0.1200
     25 C25        -7.7966    0.0388   52.1622 C.ar    1  ZINC001119787528   -0.1000
     26 N26        -6.1219    2.8935   52.3360 N.ar    1  ZINC001119787528   -0.5500
     27 C27        -1.4008    3.7663   51.0047 C.3     1  ZINC001119787528    0.2000
     28 H28         1.2447    2.2495   45.0073 H       1  ZINC001119787528    0.0800
     29 H29         1.8177    3.5187   46.1160 H       1  ZINC001119787528    0.0600
     30 H30         1.3243    1.9332   46.7571 H       1  ZINC001119787528    0.0600
     31 H31        -0.5148    3.9532   45.3952 H       1  ZINC001119787528    0.0900
     32 H32        -1.0082    2.3676   46.0364 H       1  ZINC001119787528    0.1000
     33 H33         0.2373    5.8137   47.1967 H       1  ZINC001119787528    0.2100
     34 H34        -2.4697    1.6709   48.3033 H       1  ZINC001119787528    0.0800
     35 H35        -0.7934    1.0770   48.1849 H       1  ZINC001119787528    0.0900
     36 H36        -2.0895    0.4634   50.3392 H       1  ZINC001119787528    0.1100
     37 H37        -0.4787    1.1917   50.5579 H       1  ZINC001119787528    0.0800
     38 H38        -3.3475    4.1751   52.3564 H       1  ZINC001119787528    0.4200
     39 H39        -4.1543    3.4252   54.9694 H       1  ZINC001119787528    0.1800
     40 H40        -6.3399    3.0967   56.0992 H       1  ZINC001119787528    0.1700
     41 H41        -9.3434    3.0014   52.6012 H       1  ZINC001119787528    0.1000
     42 H42        -8.3571    2.7355   51.1436 H       1  ZINC001119787528    0.1000
     43 H43       -10.9297    1.2608   52.4228 H       1  ZINC001119787528    0.1300
     44 H44       -11.4364   -1.1470   52.5197 H       1  ZINC001119787528    0.1200
     45 H45        -9.6116   -2.7951   52.3910 H       1  ZINC001119787528    0.1200
     46 H46        -7.2803   -2.0357   52.1645 H       1  ZINC001119787528    0.1200
     47 H47        -6.7741    0.3718   52.0628 H       1  ZINC001119787528    0.1200
     48 H48        -0.5356    3.7068   51.6652 H       1  ZINC001119787528    0.0900
     49 H49        -2.0809    4.5438   51.3522 H       1  ZINC001119787528    0.0900
@<TRIPOS>BOND
     1     1     2    1
     2     1    28    1
     3     1    29    1
     4     1    30    1
     5     2     3    1
     6     2    31    1
     7     2    32    1
     8     3     7    1
     9     3     4    1
    10     4     5    2
    11     4    33    1
    12     5     6    1
    13     6    27    1
    14     6     7    2
    15     7     8    1
    16     8     9    1
    17     8    34    1
    18     8    35    1
    19     9    10    1
    20     9    36    1
    21     9    37    1
    22    10    11   am
    23    10    27    1
    24    11    12    2
    25    11    13   am
    26    13    14    1
    27    13    38    1
    28    14    26   ar
    29    14    15   ar
    30    15    16   ar
    31    15    39    1
    32    16    17   ar
    33    16    40    1
    34    17    18   ar
    35    18    19    1
    36    18    26   ar
    37    19    20    1
    38    19    41    1
    39    19    42    1
    40    20    25   ar
    41    20    21   ar
    42    21    22   ar
    43    21    43    1
    44    22    23   ar
    45    22    44    1
    46    23    24   ar
    47    23    45    1
    48    24    25   ar
    49    24    46    1
    50    25    47    1
    51    27    48    1
    52    27    49    1
@<TRIPOS>SUBSTRUCTURE
     1 ZINC001119787528        1 TEMP              0 ****  ****    0 ROOT


##########                                Name:    ZINC000000992968
##########                DOCK_Rotatable_Bonds:                   8
##########                         Heavy_Atoms:                  27
##########                    Molecular_Weight:             384.772
##########                DOCK_Rotatable_Bonds:                   8
##########                       Formal_Charge:           0.0199999
##########                     HBond_Acceptors:                   7
##########                        HBond_Donors:                   0
##########                         Heavy_Atoms:                  27
##########                          Grid_Score:          -32.346344
##########                     Grid_vdw_energy:          -32.720860
##########                      Grid_es_energy:            0.374517
##########           Internal_energy_repulsive:            8.383954

@<TRIPOS>MOLECULE
ZINC000000992968
 40 42 1 0 0
SMALL
USER_CHARGES


@<TRIPOS>ATOM
      1 O1        -15.5178   -2.7323   60.4137 O.2     1  ZINC000000992968   -0.4600
      2 C2        -14.7298   -3.0536   59.5447 C.2     1  ZINC000000992968    0.5600
      3 O3        -15.0974   -3.9378   58.5939 O.3     1  ZINC000000992968   -0.2900
      4 C4        -14.5734   -3.7911   57.3508 C.ar    1  ZINC000000992968    0.1200
      5 C5        -13.8759   -4.8416   56.7645 C.ar    1  ZINC000000992968   -0.1300
      6 C6        -13.3422   -4.6978   55.5042 C.ar    1  ZINC000000992968   -0.0400
      7 C7        -13.5028   -3.4914   54.8120 C.ar    1  ZINC000000992968   -0.1600
      8 C8        -12.9356   -3.3326   53.4663 C.2     1  ZINC000000992968    0.4000
      9 O9        -13.6245   -2.9047   52.5644 O.2     1  ZINC000000992968   -0.4200
     10 C10       -11.4977   -3.7013   53.2064 C.3     1  ZINC000000992968    0.0200
     11 O11       -10.6592   -2.5278   53.3745 O.3     1  ZINC000000992968   -0.3300
     12 C12       -10.4002   -1.7981   52.2720 C.2     1  ZINC000000992968    0.5100
     13 O13       -11.0935   -1.9254   51.2827 O.2     1  ZINC000000992968   -0.5000
     14 C14        -9.2736   -0.8436   52.2663 C.ar    1  ZINC000000992968   -0.1300
     15 C15        -9.5189    0.5310   52.2965 C.ar    1  ZINC000000992968   -0.0500
     16 C16        -8.4626    1.4172   52.2915 C.ar    1  ZINC000000992968   -0.1200
     17 C17        -7.1602    0.9467   52.2561 C.ar    1  ZINC000000992968    0.0000
     18 Cl18       -5.8357    2.0688   52.2495 Cl      1  ZINC000000992968   -0.0500
     19 C19        -6.9104   -0.4155   52.2266 C.ar    1  ZINC000000992968   -0.1200
     20 C20        -7.9580   -1.3119   52.2366 C.ar    1  ZINC000000992968   -0.0400
     21 C21       -14.2064   -2.4369   55.4068 C.ar    1  ZINC000000992968   -0.0600
     22 C22       -14.7407   -2.5928   56.6654 C.ar    1  ZINC000000992968   -0.1200
     23 C23       -13.3840   -2.4764   59.5268 C.2     1  ZINC000000992968   -0.0700
     24 C24       -13.0160   -1.2796   60.0745 C.2     1  ZINC000000992968   -0.0900
     25 C25       -11.6439   -1.1267   59.8245 C.2     1  ZINC000000992968   -0.2300
     26 C26       -11.2387   -2.2222   59.1441 C.2     1  ZINC000000992968    0.0200
     27 O27       -12.2885   -3.0355   58.9717 O.3     1  ZINC000000992968   -0.1500
     28 H28       -13.7525   -5.7718   57.2992 H       1  ZINC000000992968    0.1400
     29 H29       -12.8000   -5.5141   55.0500 H       1  ZINC000000992968    0.1500
     30 H30       -11.1876   -4.4733   53.9104 H       1  ZINC000000992968    0.1100
     31 H31       -11.3973   -4.0766   52.1880 H       1  ZINC000000992968    0.1100
     32 H32       -10.5340    0.8990   52.3233 H       1  ZINC000000992968    0.1500
     33 H33        -8.6511    2.4803   52.3148 H       1  ZINC000000992968    0.1500
     34 H34        -5.8928   -0.7762   52.1994 H       1  ZINC000000992968    0.1500
     35 H35        -7.7619   -2.3736   52.2138 H       1  ZINC000000992968    0.1500
     36 H36       -14.3328   -1.5042   54.8771 H       1  ZINC000000992968    0.1400
     37 H37       -15.2837   -1.7802   57.1248 H       1  ZINC000000992968    0.1400
     38 H38       -13.6570   -0.5860   60.5982 H       1  ZINC000000992968    0.1700
     39 H39       -11.0273   -0.2909   60.1203 H       1  ZINC000000992968    0.1700
     40 H40       -10.2329   -2.4121   58.7995 H       1  ZINC000000992968    0.2200
@<TRIPOS>BOND
     1     1     2    2
     2     2     3    1
     3     2    23    1
     4     3     4    1
     5     4    22   ar
     6     4     5   ar
     7     5     6   ar
     8     5    28    1
     9     6     7   ar
    10     6    29    1
    11     7     8    1
    12     7    21   ar
    13     8     9    2
    14     8    10    1
    15    10    11    1
    16    10    30    1
    17    10    31    1
    18    11    12    1
    19    12    13    2
    20    12    14    1
    21    14    20   ar
    22    14    15   ar
    23    15    16   ar
    24    15    32    1
    25    16    17   ar
    26    16    33    1
    27    17    18    1
    28    17    19   ar
    29    19    20   ar
    30    19    34    1
    31    20    35    1
    32    21    22   ar
    33    21    36    1
    34    22    37    1
    35    23    27    1
    36    23    24    2
    37    24    25    1
    38    24    38    1
    39    25    26    2
    40    25    39    1
    41    26    27    1
    42    26    40    1
@<TRIPOS>SUBSTRUCTURE
     1 ZINC000000992968        1 TEMP              0 ****  ****    0 ROOT


##########                                Name:    ZINC000809503567
##########                DOCK_Rotatable_Bonds:                   9
##########                         Heavy_Atoms:                  26
##########                    Molecular_Weight:             353.378
##########                DOCK_Rotatable_Bonds:                   9
##########                       Formal_Charge:          -0.0200002
##########                     HBond_Acceptors:                   7
##########                        HBond_Donors:                   1
##########                         Heavy_Atoms:                  26
##########                          Grid_Score:          -32.341106
##########                     Grid_vdw_energy:          -31.674267
##########                      Grid_es_energy:           -0.666839
##########           Internal_energy_repulsive:           10.956005

@<TRIPOS>MOLECULE
ZINC000809503567
 45 46 1 0 0
SMALL
USER_CHARGES


@<TRIPOS>ATOM
      1 C1          3.8374   -0.7085   44.3029 C.3     1  ZINC000809503567    0.0200
      2 O2          3.7740    0.1020   45.4781 O.3     1  ZINC000809503567   -0.3100
      3 C3          2.5429    0.5032   45.8842 C.ar    1  ZINC000809503567    0.1900
      4 C4          1.7201   -0.3699   46.5783 C.ar    1  ZINC000809503567   -0.2100
      5 C5          0.4669    0.0397   46.9911 C.ar    1  ZINC000809503567   -0.0200
      6 C6          0.0229    1.3220   46.7154 C.ar    1  ZINC000809503567   -0.1500
      7 C7         -1.3465    1.7559   47.1710 C.3     1  ZINC000809503567    0.1700
      8 N8         -1.2199    2.6063   48.3572 N.am    1  ZINC000809503567   -0.7000
      9 C9         -1.2506    2.0560   49.5871 C.2     1  ZINC000809503567    0.5100
     10 O10        -1.3847    0.8566   49.7121 O.2     1  ZINC000809503567   -0.4900
     11 C11        -1.1197    2.9234   50.7971 C.2     1  ZINC000809503567    0.5100
     12 O12        -0.1655    3.6643   50.9122 O.2     1  ZINC000809503567   -0.5000
     13 N13        -2.0613    2.8827   51.7605 N.am    1  ZINC000809503567   -0.4600
     14 C14        -1.9320    3.7316   52.9475 C.3     1  ZINC000809503567    0.0800
     15 O15        -3.1755    2.0193   51.6255 O.3     1  ZINC000809503567   -0.1100
     16 C16        -4.3354    2.4511   52.3398 C.3     1  ZINC000809503567    0.0800
     17 C17        -5.4526    1.4622   52.1283 C.ar    1  ZINC000809503567   -0.0900
     18 C18        -6.7684    1.8728   52.2339 C.ar    1  ZINC000809503567   -0.1000
     19 C19        -7.7932    0.9655   52.0399 C.ar    1  ZINC000809503567   -0.1300
     20 C20        -7.5024   -0.3522   51.7399 C.ar    1  ZINC000809503567   -0.1100
     21 C21        -6.1866   -0.7626   51.6336 C.ar    1  ZINC000809503567   -0.1300
     22 C22        -5.1618    0.1456   51.8233 C.ar    1  ZINC000809503567   -0.0800
     23 C23         0.8283    2.2038   46.0265 C.ar    1  ZINC000809503567   -0.0100
     24 C24         2.0998    1.8044   45.6084 C.ar    1  ZINC000809503567   -0.0600
     25 C25         2.9415    2.7151   44.8924 C.1     1  ZINC000809503567    0.2600
     26 N26         3.6092    3.4377   44.3243 N.1     1  ZINC000809503567   -0.4100
     27 H27         3.4153   -0.1606   43.4604 H       1  ZINC000809503567    0.0600
     28 H28         4.8767   -0.9586   44.0896 H       1  ZINC000809503567    0.1100
     29 H29         3.2686   -1.6246   44.4622 H       1  ZINC000809503567    0.0600
     30 H30         2.0588   -1.3718   46.7965 H       1  ZINC000809503567    0.1400
     31 H31        -0.1704   -0.6444   47.5317 H       1  ZINC000809503567    0.1400
     32 H32        -1.8345    2.3157   46.3730 H       1  ZINC000809503567    0.0900
     33 H33        -1.9432    0.8772   47.4158 H       1  ZINC000809503567    0.0900
     34 H34        -1.1139    3.5653   48.2573 H       1  ZINC000809503567    0.4100
     35 H35        -2.4205    4.6886   52.7647 H       1  ZINC000809503567    0.0800
     36 H36        -2.4030    3.2401   53.7988 H       1  ZINC000809503567    0.0800
     37 H37        -0.8764    3.8976   53.1623 H       1  ZINC000809503567    0.0900
     38 H38        -4.1040    2.5160   53.4031 H       1  ZINC000809503567    0.0700
     39 H39        -4.6434    3.4308   51.9746 H       1  ZINC000809503567    0.0600
     40 H40        -6.9956    2.9022   52.4681 H       1  ZINC000809503567    0.1200
     41 H41        -8.8211    1.2862   52.1230 H       1  ZINC000809503567    0.1200
     42 H42        -8.3029   -1.0611   51.5891 H       1  ZINC000809503567    0.1200
     43 H43        -5.9593   -1.7922   51.3996 H       1  ZINC000809503567    0.1200
     44 H44        -4.1338   -0.1751   51.7402 H       1  ZINC000809503567    0.1300
     45 H45         0.4780    3.2029   45.8136 H       1  ZINC000809503567    0.1400
@<TRIPOS>BOND
     1     1     2    1
     2     1    27    1
     3     1    28    1
     4     1    29    1
     5     2     3    1
     6     3    24   ar
     7     3     4   ar
     8     4     5   ar
     9     4    30    1
    10     5     6   ar
    11     5    31    1
    12     6     7    1
    13     6    23   ar
    14     7     8    1
    15     7    32    1
    16     7    33    1
    17     8     9   am
    18     8    34    1
    19     9    10    2
    20     9    11    1
    21    11    12    2
    22    11    13   am
    23    13    14    1
    24    13    15    1
    25    14    35    1
    26    14    36    1
    27    14    37    1
    28    15    16    1
    29    16    17    1
    30    16    38    1
    31    16    39    1
    32    17    22   ar
    33    17    18   ar
    34    18    19   ar
    35    18    40    1
    36    19    20   ar
    37    19    41    1
    38    20    21   ar
    39    20    42    1
    40    21    22   ar
    41    21    43    1
    42    22    44    1
    43    23    24   ar
    44    23    45    1
    45    24    25    1
    46    25    26    3
@<TRIPOS>SUBSTRUCTURE
     1 ZINC000809503567        1 TEMP              0 ****  ****    0 ROOT


##########                                Name:    ZINC001141221454
##########                DOCK_Rotatable_Bonds:                   7
##########                         Heavy_Atoms:                  27
##########                    Molecular_Weight:             369.439
##########                DOCK_Rotatable_Bonds:                   7
##########                       Formal_Charge:          0.00999935
##########                     HBond_Acceptors:                   6
##########                        HBond_Donors:                   1
##########                         Heavy_Atoms:                  27
##########                          Grid_Score:          -32.336975
##########                     Grid_vdw_energy:          -31.767275
##########                      Grid_es_energy:           -0.569701
##########           Internal_energy_repulsive:           12.544239

@<TRIPOS>MOLECULE
ZINC001141221454
 51 54 1 0 0
SMALL
USER_CHARGES


@<TRIPOS>ATOM
      1 C1         -6.1256    1.6380   52.5613 C.3     1  ZINC001141221454    0.0300
      2 O2         -6.7004    0.3299   52.5346 O.3     1  ZINC001141221454   -0.3100
      3 C3         -8.0568    0.2507   52.5858 C.ar    1  ZINC001141221454    0.0900
      4 C4         -8.8131    1.3984   52.7652 C.ar    1  ZINC001141221454   -0.1800
      5 C5        -10.1919    1.3156   52.8163 C.ar    1  ZINC001141221454   -0.0900
      6 C6        -10.8179    0.0898   52.6889 C.ar    1  ZINC001141221454   -0.1200
      7 C7        -10.0671   -1.0578   52.5102 C.ar    1  ZINC001141221454   -0.0800
      8 C8        -10.7529   -2.3925   52.3721 C.3     1  ZINC001141221454    0.0900
      9 N9        -11.7596   -2.5377   53.4320 N.3     1  ZINC001141221454   -0.5100
     10 C10       -12.4988   -3.8192   53.2924 C.3     1  ZINC001141221454    0.0300
     11 C11       -13.0845   -4.0507   54.7097 C.3     1  ZINC001141221454   -0.0700
     12 C12       -11.9630   -3.5320   55.6285 C.3     1  ZINC001141221454   -0.1000
     13 C13       -11.3263   -4.4308   56.6806 C.3     1  ZINC001141221454   -0.1400
     14 C14       -12.2160   -3.2588   57.1054 C.3     1  ZINC001141221454   -0.1800
     15 H15       -11.7277   -2.3905   57.5476 H       1  ZINC001141221454    0.1300
     16 C16       -13.5828   -3.5841   57.6503 C.2     1  ZINC001141221454    0.5500
     17 O17       -13.9540   -4.7373   57.7080 O.2     1  ZINC001141221454   -0.5300
     18 N18       -14.3927   -2.5935   58.0736 N.am    1  ZINC001141221454   -0.7300
     19 C19       -15.7221   -2.9094   58.6017 C.3     1  ZINC001141221454    0.1700
     20 C20       -16.0498   -1.9692   59.7330 C.ar    1  ZINC001141221454   -0.1600
     21 C21       -16.5657   -0.7094   59.4717 C.ar    1  ZINC001141221454   -0.0600
     22 C22       -16.8527    0.1217   60.5440 C.ar    1  ZINC001141221454   -0.1700
     23 C23       -16.6167   -0.3302   61.8282 C.ar    1  ZINC001141221454    0.1100
     24 N24       -16.1247   -1.5355   62.0395 N.ar    1  ZINC001141221454   -0.4800
     25 C25       -15.8450   -2.3544   61.0447 C.ar    1  ZINC001141221454    0.1200
     26 C26       -11.1215   -2.5818   54.7677 C.3     1  ZINC001141221454    0.0700
     27 C27        -8.6876   -0.9802   52.4525 C.ar    1  ZINC001141221454    0.0900
     28 F28        -7.9537   -2.1010   52.2780 F       1  ZINC001141221454   -0.1300
     29 H29        -5.0395    1.5586   52.5149 H       1  ZINC001141221454    0.1000
     30 H30        -6.4849    2.2103   51.7059 H       1  ZINC001141221454    0.0600
     31 H31        -6.4140    2.1429   53.4833 H       1  ZINC001141221454    0.0600
     32 H32        -8.3254    2.3567   52.8652 H       1  ZINC001141221454    0.1400
     33 H33       -10.7810    2.2099   52.9565 H       1  ZINC001141221454    0.1300
     34 H34       -11.8954    0.0282   52.7292 H       1  ZINC001141221454    0.1300
     35 H35       -11.2391   -2.4522   51.3984 H       1  ZINC001141221454    0.0600
     36 H36       -10.0155   -3.1905   52.4596 H       1  ZINC001141221454    0.0900
     37 H37       -13.2979   -3.7237   52.5573 H       1  ZINC001141221454    0.0800
     38 H38       -11.8194   -4.6270   53.0205 H       1  ZINC001141221454    0.0500
     39 H39       -13.9975   -3.4721   54.8499 H       1  ZINC001141221454    0.0900
     40 H40       -13.2672   -5.1111   54.8837 H       1  ZINC001141221454    0.0700
     41 H41       -11.7303   -5.4367   56.7946 H       1  ZINC001141221454    0.1000
     42 H42       -10.2530   -4.3332   56.8435 H       1  ZINC001141221454    0.1100
     43 H43       -14.0953   -1.6713   58.0286 H       1  ZINC001141221454    0.4000
     44 H44       -16.4634   -2.7980   57.8104 H       1  ZINC001141221454    0.0800
     45 H45       -15.7331   -3.9360   58.9679 H       1  ZINC001141221454    0.0800
     46 H46       -16.7397   -0.3828   58.4570 H       1  ZINC001141221454    0.1400
     47 H47       -17.2554    1.1099   60.3774 H       1  ZINC001141221454    0.1400
     48 H48       -16.8372    0.3111   62.6687 H       1  ZINC001141221454    0.1600
     49 H49       -15.4431   -3.3341   61.2567 H       1  ZINC001141221454    0.1600
     50 H50       -10.1027   -2.9599   54.6819 H       1  ZINC001141221454    0.0500
     51 H51       -11.1138   -1.5858   55.2103 H       1  ZINC001141221454    0.0900
@<TRIPOS>BOND
     1     1     2    1
     2     1    29    1
     3     1    30    1
     4     1    31    1
     5     2     3    1
     6     3    27   ar
     7     3     4   ar
     8     4     5   ar
     9     4    32    1
    10     5     6   ar
    11     5    33    1
    12     6     7   ar
    13     6    34    1
    14     7     8    1
    15     7    27   ar
    16     8     9    1
    17     8    35    1
    18     8    36    1
    19     9    26    1
    20     9    10    1
    21    10    11    1
    22    10    37    1
    23    10    38    1
    24    11    12    1
    25    11    39    1
    26    11    40    1
    27    12    14    1
    28    12    13    1
    29    12    26    1
    30    13    14    1
    31    13    41    1
    32    13    42    1
    33    14    15    1
    34    14    16    1
    35    16    17    2
    36    16    18   am
    37    18    19    1
    38    18    43    1
    39    19    20    1
    40    19    44    1
    41    19    45    1
    42    20    25   ar
    43    20    21   ar
    44    21    22   ar
    45    21    46    1
    46    22    23   ar
    47    22    47    1
    48    23    24   ar
    49    23    48    1
    50    24    25   ar
    51    25    49    1
    52    26    50    1
    53    26    51    1
    54    27    28    1
@<TRIPOS>SUBSTRUCTURE
     1 ZINC001141221454        1 TEMP              0 ****  ****    0 ROOT


##########                                Name:    ZINC000420486261
##########                DOCK_Rotatable_Bonds:                   7
##########                         Heavy_Atoms:                  26
##########                    Molecular_Weight:             353.378
##########                DOCK_Rotatable_Bonds:                   7
##########                       Formal_Charge:        -2.98023e-08
##########                     HBond_Acceptors:                   7
##########                        HBond_Donors:                   0
##########                         Heavy_Atoms:                  26
##########                          Grid_Score:          -32.311306
##########                     Grid_vdw_energy:          -32.197662
##########                      Grid_es_energy:           -0.113645
##########           Internal_energy_repulsive:           13.410088

@<TRIPOS>MOLECULE
ZINC000420486261
 45 47 1 0 0
SMALL
USER_CHARGES


@<TRIPOS>ATOM
      1 C1        -10.1179   -1.5991   52.2643 C.3     1  ZINC000420486261    0.0400
      2 O2         -9.2783   -0.4622   52.5975 O.3     1  ZINC000420486261   -0.3500
      3 C3         -7.9766   -0.5445   52.2622 C.2     1  ZINC000420486261    0.5100
      4 O4         -7.5595   -1.5272   51.6837 O.2     1  ZINC000420486261   -0.4900
      5 C5         -7.0540    0.5634   52.5990 C.ar    1  ZINC000420486261   -0.0700
      6 C6         -7.3625    1.4699   53.6187 C.ar    1  ZINC000420486261   -0.0900
      7 C7         -6.4748    2.4923   53.9049 C.ar    1  ZINC000420486261    0.1100
      8 N8         -5.3509    2.6227   53.2339 N.ar    1  ZINC000420486261   -0.4200
      9 C9         -5.0145    1.7880   52.2583 C.ar    1  ZINC000420486261    0.1900
     10 C10        -3.7370    1.9817   51.5366 C.2     1  ZINC000420486261    0.2200
     11 N11        -3.2183    3.1319   51.1531 N.2     1  ZINC000420486261   -0.4300
     12 C12        -2.0577    2.8180   50.5398 C.2     1  ZINC000420486261    0.2200
     13 C13        -1.0994    3.7726   49.9310 C.ar    1  ZINC000420486261   -0.0600
     14 C14        -1.3999    5.1318   49.8849 C.ar    1  ZINC000420486261   -0.0300
     15 C15        -0.5049    6.0160   49.3174 C.ar    1  ZINC000420486261   -0.1600
     16 C16         0.6909    5.5574   48.7935 C.ar    1  ZINC000420486261   -0.0600
     17 C17         0.9992    4.2111   48.8339 C.ar    1  ZINC000420486261   -0.2200
     18 C18         0.1124    3.3126   49.4060 C.ar    1  ZINC000420486261    0.1700
     19 O19         0.4142    1.9892   49.4465 O.3     1  ZINC000420486261   -0.2900
     20 C20         0.7280    1.3571   48.2040 C.3     1  ZINC000420486261    0.0600
     21 C21        -0.5031    1.3786   47.2956 C.3     1  ZINC000420486261   -0.0900
     22 C22        -0.2005    2.2079   46.0461 C.3     1  ZINC000420486261   -0.1500
     23 C23        -0.8586   -0.0517   46.8847 C.3     1  ZINC000420486261   -0.1500
     24 N24        -1.9338    1.5156   50.5820 N.2     1  ZINC000420486261   -0.3400
     25 O25        -2.8826    1.0209   51.1528 O.3     1  ZINC000420486261    0.1000
     26 C26        -5.8493    0.7280   51.9105 C.ar    1  ZINC000420486261   -0.0700
     27 H27       -11.1400   -1.4032   52.5883 H       1  ZINC000420486261    0.1100
     28 H28       -10.1026   -1.7585   51.1861 H       1  ZINC000420486261    0.0700
     29 H29        -9.7412   -2.4891   52.7686 H       1  ZINC000420486261    0.0700
     30 H30        -8.2826    1.3732   54.1760 H       1  ZINC000420486261    0.1600
     31 H31        -6.7086    3.1946   54.6914 H       1  ZINC000420486261    0.1800
     32 H32        -2.3323    5.4934   50.2925 H       1  ZINC000420486261    0.1400
     33 H33        -0.7390    7.0698   49.2817 H       1  ZINC000420486261    0.1300
     34 H34         1.3863    6.2550   48.3505 H       1  ZINC000420486261    0.1300
     35 H35         1.9340    3.8591   48.4234 H       1  ZINC000420486261    0.1400
     36 H36         1.5455    1.8918   47.7206 H       1  ZINC000420486261    0.0600
     37 H37         1.0267    0.3249   48.3868 H       1  ZINC000420486261    0.0600
     38 H38        -1.3423    1.8218   47.8316 H       1  ZINC000420486261    0.0800
     39 H39         0.6387    1.7645   45.5102 H       1  ZINC000420486261    0.0600
     40 H40        -1.0775    2.2232   45.3990 H       1  ZINC000420486261    0.0700
     41 H41         0.0528    3.2269   46.3388 H       1  ZINC000420486261    0.0600
     42 H42        -0.0194   -0.4951   46.3488 H       1  ZINC000420486261    0.0500
     43 H43        -1.0742   -0.6426   47.7750 H       1  ZINC000420486261    0.0600
     44 H44        -1.7357   -0.0365   46.2376 H       1  ZINC000420486261    0.0600
     45 H45        -5.5735    0.0497   51.1166 H       1  ZINC000420486261    0.1600
@<TRIPOS>BOND
     1     1     2    1
     2     1    27    1
     3     1    28    1
     4     1    29    1
     5     2     3    1
     6     3     4    2
     7     3     5    1
     8     5    26   ar
     9     5     6   ar
    10     6     7   ar
    11     6    30    1
    12     7     8   ar
    13     7    31    1
    14     8     9   ar
    15     9    10    1
    16     9    26   ar
    17    10    25    1
    18    10    11    2
    19    11    12    1
    20    12    13    1
    21    12    24    2
    22    13    18   ar
    23    13    14   ar
    24    14    15   ar
    25    14    32    1
    26    15    16   ar
    27    15    33    1
    28    16    17   ar
    29    16    34    1
    30    17    18   ar
    31    17    35    1
    32    18    19    1
    33    19    20    1
    34    20    21    1
    35    20    36    1
    36    20    37    1
    37    21    22    1
    38    21    23    1
    39    21    38    1
    40    22    39    1
    41    22    40    1
    42    22    41    1
    43    23    42    1
    44    23    43    1
    45    23    44    1
    46    24    25    1
    47    26    45    1
@<TRIPOS>SUBSTRUCTURE
     1 ZINC000420486261        1 TEMP              0 ****  ****    0 ROOT


##########                                Name:    ZINC000506566356
##########                DOCK_Rotatable_Bonds:                  10
##########                         Heavy_Atoms:                  28
##########                    Molecular_Weight:               415.9
##########                DOCK_Rotatable_Bonds:                  10
##########                       Formal_Charge:           0.0199998
##########                     HBond_Acceptors:                   8
##########                        HBond_Donors:                   2
##########                         Heavy_Atoms:                  28
##########                          Grid_Score:          -32.297424
##########                     Grid_vdw_energy:          -30.500149
##########                      Grid_es_energy:           -1.797277
##########           Internal_energy_repulsive:            5.995782

@<TRIPOS>MOLECULE
ZINC000506566356
 46 48 1 0 0
SMALL
USER_CHARGES


@<TRIPOS>ATOM
      1 O1         -6.3590    4.0659   53.7657 O.2     1  ZINC000506566356   -0.5100
      2 C2         -5.5034    3.3527   53.2839 C.2     1  ZINC000506566356    0.5100
      3 N3         -5.8122    2.1011   52.8908 N.am    1  ZINC000506566356   -0.7000
      4 C4         -7.1792    1.5994   53.0508 C.3     1  ZINC000506566356    0.1200
      5 C5         -7.4822    0.5839   51.9472 C.3     1  ZINC000506566356   -0.0900
      6 C6         -8.8802    0.0502   52.1256 C.ar    1  ZINC000506566356   -0.0700
      7 C7         -9.9672    0.8810   51.9291 C.ar    1  ZINC000506566356   -0.1100
      8 C8        -11.2501    0.3920   52.0921 C.ar    1  ZINC000506566356   -0.1000
      9 C9        -11.4464   -0.9277   52.4521 C.ar    1  ZINC000506566356   -0.1100
     10 C10       -10.3585   -1.7598   52.6491 C.ar    1  ZINC000506566356   -0.0300
     11 Cl11      -10.6042   -3.4179   53.1009 Cl      1  ZINC000506566356   -0.0700
     12 C12        -9.0754   -1.2716   52.4802 C.ar    1  ZINC000506566356   -0.1000
     13 C13        -4.1098    3.8642   53.1208 C.2     1  ZINC000506566356    0.5100
     14 O14        -3.9100    5.0564   53.0101 O.2     1  ZINC000506566356   -0.5000
     15 N15        -3.0741    3.0021   53.0965 N.am    1  ZINC000506566356   -0.6300
     16 C16        -1.7688    3.4812   52.9438 C.ar    1  ZINC000506566356    0.1100
     17 C17        -1.0958    4.0248   54.0285 C.ar    1  ZINC000506566356   -0.0800
     18 C18         0.1939    4.4975   53.8749 C.ar    1  ZINC000506566356   -0.1400
     19 C19         0.8162    4.4304   52.6422 C.ar    1  ZINC000506566356   -0.0900
     20 C20         0.1520    3.8905   51.5561 C.ar    1  ZINC000506566356   -0.1900
     21 C21        -1.1384    3.4087   51.7024 C.ar    1  ZINC000506566356    0.1200
     22 O22        -1.7928    2.8777   50.6356 O.3     1  ZINC000506566356   -0.3100
     23 C23        -1.3066    1.6324   50.1306 C.3     1  ZINC000506566356    0.1400
     24 C24        -1.0980    1.7410   48.6421 C.2     1  ZINC000506566356    0.0500
     25 C25        -0.4043    2.7355   48.0801 C.2     1  ZINC000506566356   -0.2300
     26 S26        -0.4066    2.4804   46.3366 S.3     1  ZINC000506566356    0.1400
     27 C27        -1.3399    1.0619   46.5369 C.2     1  ZINC000506566356    0.0200
     28 N28        -1.5798    0.8603   47.7885 N.2     1  ZINC000506566356   -0.4700
     29 H29        -5.1292    1.5324   52.5021 H       1  ZINC000506566356    0.4200
     30 H30        -7.2783    1.1187   54.0240 H       1  ZINC000506566356    0.0800
     31 H31        -7.8814    2.4302   52.9828 H       1  ZINC000506566356    0.0800
     32 H32        -7.3999    1.0690   50.9745 H       1  ZINC000506566356    0.0900
     33 H33        -6.7692   -0.2385   52.0046 H       1  ZINC000506566356    0.0900
     34 H34        -9.8143    1.9127   51.6483 H       1  ZINC000506566356    0.1300
     35 H35       -12.0991    1.0416   51.9383 H       1  ZINC000506566356    0.1300
     36 H36       -12.4485   -1.3093   52.5802 H       1  ZINC000506566356    0.1300
     37 H37        -8.2259   -1.9206   52.6338 H       1  ZINC000506566356    0.1300
     38 H38        -3.2338    2.0494   53.1850 H       1  ZINC000506566356    0.4300
     39 H39        -1.5796    4.0788   54.9926 H       1  ZINC000506566356    0.1500
     40 H40         0.7166    4.9207   54.7198 H       1  ZINC000506566356    0.1300
     41 H41         1.8241    4.8010   52.5270 H       1  ZINC000506566356    0.1300
     42 H42         0.6411    3.8404   50.5944 H       1  ZINC000506566356    0.1400
     43 H43        -0.3601    1.3892   50.6134 H       1  ZINC000506566356    0.0900
     44 H44        -2.0333    0.8472   50.3392 H       1  ZINC000506566356    0.0900
     45 H45         0.0732    3.5513   48.6022 H       1  ZINC000506566356    0.1800
     46 H46        -1.6761    0.4245   45.7324 H       1  ZINC000506566356    0.2100
@<TRIPOS>BOND
     1     1     2    2
     2     2     3   am
     3     2    13    1
     4     3     4    1
     5     3    29    1
     6     4     5    1
     7     4    30    1
     8     4    31    1
     9     5     6    1
    10     5    32    1
    11     5    33    1
    12     6    12   ar
    13     6     7   ar
    14     7     8   ar
    15     7    34    1
    16     8     9   ar
    17     8    35    1
    18     9    10   ar
    19     9    36    1
    20    10    11    1
    21    10    12   ar
    22    12    37    1
    23    13    14    2
    24    13    15   am
    25    15    16    1
    26    15    38    1
    27    16    21   ar
    28    16    17   ar
    29    17    18   ar
    30    17    39    1
    31    18    19   ar
    32    18    40    1
    33    19    20   ar
    34    19    41    1
    35    20    21   ar
    36    20    42    1
    37    21    22    1
    38    22    23    1
    39    23    24    1
    40    23    43    1
    41    23    44    1
    42    24    28    1
    43    24    25    2
    44    25    26    1
    45    25    45    1
    46    26    27    1
    47    27    28    2
    48    27    46    1
@<TRIPOS>SUBSTRUCTURE
     1 ZINC000506566356        1 TEMP              0 ****  ****    0 ROOT


##########                                Name:    ZINC000746432885
##########                DOCK_Rotatable_Bonds:                  11
##########                         Heavy_Atoms:                  31
##########                    Molecular_Weight:              419.44
##########                DOCK_Rotatable_Bonds:                  11
##########                       Formal_Charge:           0.0199995
##########                     HBond_Acceptors:                   9
##########                        HBond_Donors:                   2
##########                         Heavy_Atoms:                  31
##########                          Grid_Score:          -32.224041
##########                     Grid_vdw_energy:          -29.948931
##########                      Grid_es_energy:           -2.275111
##########           Internal_energy_repulsive:            8.939850

@<TRIPOS>MOLECULE
ZINC000746432885
 52 54 1 0 0
SMALL
USER_CHARGES


@<TRIPOS>ATOM
      1 C1        -11.3579   -2.0227   51.7846 C.3     1  ZINC000746432885    0.0300
      2 O2        -10.6616   -0.9048   52.3394 O.3     1  ZINC000746432885   -0.3200
      3 C3        -10.9739   -0.5546   53.6149 C.ar    1  ZINC000746432885    0.1300
      4 C4        -11.5089    0.6975   53.8804 C.ar    1  ZINC000746432885   -0.2000
      5 C5        -11.8254    1.0511   55.1778 C.ar    1  ZINC000746432885   -0.0800
      6 C6        -11.6091    0.1585   56.2112 C.ar    1  ZINC000746432885   -0.1400
      7 C7        -11.0760   -1.0901   55.9492 C.ar    1  ZINC000746432885   -0.0600
      8 C8        -10.8419   -2.0608   57.0779 C.3     1  ZINC000746432885    0.2300
      9 N9        -10.6541   -1.3202   58.3279 N.am    1  ZINC000746432885   -0.6900
     10 C10       -10.0867   -1.9247   59.3905 C.2     1  ZINC000746432885    0.5200
     11 O11        -9.7301   -3.0821   59.3114 O.2     1  ZINC000746432885   -0.5100
     12 C12        -9.8969   -1.1704   60.6652 C.2     1  ZINC000746432885    0.5100
     13 O13       -10.3405   -1.6137   61.7047 O.2     1  ZINC000746432885   -0.5100
     14 N14        -9.2330    0.0025   60.6617 N.am    1  ZINC000746432885   -0.6100
     15 C15        -9.0530    0.7114   61.8611 C.2     1  ZINC000746432885    0.0000
     16 C16        -8.3044    0.3126   62.9223 C.2     1  ZINC000746432885    0.0400
     17 N17        -8.3919    1.2735   63.8698 N.pl3   1  ZINC000746432885   -0.3800
     18 C18        -7.7375    1.2524   65.1803 C.3     1  ZINC000746432885    0.2500
     19 C19        -8.6553    0.6787   66.1780 C.1     1  ZINC000746432885    0.1900
     20 N20        -9.3634    0.2360   66.9480 N.1     1  ZINC000746432885   -0.3900
     21 N21        -9.2175    2.2925   63.3782 N.2     1  ZINC000746432885   -0.2800
     22 C22        -9.6094    1.9610   62.1749 C.2     1  ZINC000746432885    0.0700
     23 C23       -12.0331   -2.9747   57.2096 C.ar    1  ZINC000746432885   -0.0500
     24 C24       -11.9208   -4.3095   56.8673 C.ar    1  ZINC000746432885   -0.1500
     25 C25       -13.0116   -5.1506   56.9875 C.ar    1  ZINC000746432885   -0.0700
     26 C26       -14.2169   -4.6587   57.4500 C.ar    1  ZINC000746432885   -0.2000
     27 C27       -14.3321   -3.3197   57.7940 C.ar    1  ZINC000746432885    0.1300
     28 O28       -15.5167   -2.8334   58.2492 O.3     1  ZINC000746432885   -0.3200
     29 C29       -15.9137   -3.2205   59.5663 C.3     1  ZINC000746432885    0.0300
     30 C30       -13.2346   -2.4790   57.6775 C.ar    1  ZINC000746432885   -0.1300
     31 C31       -10.7636   -1.4508   54.6528 C.ar    1  ZINC000746432885   -0.1300
     32 H32       -12.4284   -1.8172   51.7781 H       1  ZINC000746432885    0.0600
     33 H33       -11.0147   -2.1945   50.7644 H       1  ZINC000746432885    0.1000
     34 H34       -11.1617   -2.9089   52.3881 H       1  ZINC000746432885    0.0600
     35 H35       -11.6774    1.3955   53.0736 H       1  ZINC000746432885    0.1300
     36 H36       -12.2419    2.0258   55.3851 H       1  ZINC000746432885    0.1300
     37 H37       -11.8565    0.4370   57.2249 H       1  ZINC000746432885    0.1200
     38 H38        -9.9510   -2.6530   56.8690 H       1  ZINC000746432885    0.1200
     39 H39       -10.9381   -0.3948   58.3908 H       1  ZINC000746432885    0.4200
     40 H40        -8.8796    0.3573   59.8310 H       1  ZINC000746432885    0.4200
     41 H41        -7.7414   -0.6061   62.9961 H       1  ZINC000746432885    0.1900
     42 H42        -6.8344    0.6446   65.1257 H       1  ZINC000746432885    0.1300
     43 H43        -7.4741    2.2693   65.4714 H       1  ZINC000746432885    0.1500
     44 H44       -10.2550    2.5451   61.5359 H       1  ZINC000746432885    0.2100
     45 H45       -10.9795   -4.6959   56.5052 H       1  ZINC000746432885    0.1200
     46 H46       -12.9215   -6.1929   56.7192 H       1  ZINC000746432885    0.1300
     47 H47       -15.0687   -5.3160   57.5433 H       1  ZINC000746432885    0.1300
     48 H48       -16.8745   -2.7643   59.8050 H       1  ZINC000746432885    0.1000
     49 H49       -16.0047   -4.3055   59.6142 H       1  ZINC000746432885    0.0600
     50 H50       -15.1646   -2.8866   60.2843 H       1  ZINC000746432885    0.0600
     51 H51       -13.3218   -1.4363   57.9447 H       1  ZINC000746432885    0.1400
     52 H52       -10.3472   -2.4261   54.4486 H       1  ZINC000746432885    0.1300
@<TRIPOS>BOND
     1     1     2    1
     2     1    32    1
     3     1    33    1
     4     1    34    1
     5     2     3    1
     6     3    31   ar
     7     3     4   ar
     8     4     5   ar
     9     4    35    1
    10     5     6   ar
    11     5    36    1
    12     6     7   ar
    13     6    37    1
    14     7     8    1
    15     7    31   ar
    16     8     9    1
    17     8    23    1
    18     8    38    1
    19     9    10   am
    20     9    39    1
    21    10    11    2
    22    10    12    1
    23    12    13    2
    24    12    14   am
    25    14    15    1
    26    14    40    1
    27    15    22    1
    28    15    16    2
    29    16    17    1
    30    16    41    1
    31    17    18    1
    32    17    21    1
    33    18    19    1
    34    18    42    1
    35    18    43    1
    36    19    20    3
    37    21    22    2
    38    22    44    1
    39    23    30   ar
    40    23    24   ar
    41    24    25   ar
    42    24    45    1
    43    25    26   ar
    44    25    46    1
    45    26    27   ar
    46    26    47    1
    47    27    28    1
    48    27    30   ar
    49    28    29    1
    50    29    48    1
    51    29    49    1
    52    29    50    1
    53    30    51    1
    54    31    52    1
@<TRIPOS>SUBSTRUCTURE
     1 ZINC000746432885        1 TEMP              0 ****  ****    0 ROOT


##########                                Name:    ZINC000050607728
##########                DOCK_Rotatable_Bonds:                  10
##########                         Heavy_Atoms:                  31
##########                    Molecular_Weight:             416.476
##########                DOCK_Rotatable_Bonds:                  10
##########                       Formal_Charge:          -0.0199995
##########                     HBond_Acceptors:                   6
##########                        HBond_Donors:                   1
##########                         Heavy_Atoms:                  31
##########                          Grid_Score:          -32.212101
##########                     Grid_vdw_energy:          -31.281590
##########                      Grid_es_energy:           -0.930511
##########           Internal_energy_repulsive:           14.047209

@<TRIPOS>MOLECULE
ZINC000050607728
 55 57 1 0 0
SMALL
USER_CHARGES


@<TRIPOS>ATOM
      1 C1         -1.6216    1.7316   46.8424 C.3     1  ZINC000050607728    0.0800
      2 N2         -0.2835    1.3054   47.2598 N.am    1  ZINC000050607728   -0.6200
      3 C3          0.5879    0.6001   46.3168 C.3     1  ZINC000050607728    0.0700
      4 C4          0.1458    1.5622   48.5112 C.2     1  ZINC000050607728    0.5600
      5 O5          1.2559    1.2085   48.8575 O.2     1  ZINC000050607728   -0.5300
      6 C6         -0.7336    2.2740   49.4630 C.ar    1  ZINC000050607728   -0.1400
      7 C7         -0.5963    3.6503   49.6492 C.ar    1  ZINC000050607728   -0.0800
      8 C8         -1.4205    4.3087   50.5385 C.ar    1  ZINC000050607728   -0.1300
      9 C9         -2.3810    3.6075   51.2453 C.ar    1  ZINC000050607728   -0.0700
     10 C10        -2.5220    2.2426   51.0657 C.ar    1  ZINC000050607728   -0.1100
     11 C11        -3.5708    1.4867   51.8402 C.3     1  ZINC000050607728    0.1100
     12 O12        -4.8879    1.9813   51.4813 O.3     1  ZINC000050607728   -0.3400
     13 C13        -5.9158    1.1282   51.6124 C.2     1  ZINC000050607728    0.4700
     14 O14        -5.7154   -0.0634   51.6153 O.2     1  ZINC000050607728   -0.5000
     15 C15        -7.3199    1.6564   51.7560 C.3     1  ZINC000050607728    0.2000
     16 H16        -7.6420    2.0937   50.8109 H       1  ZINC000050607728    0.1400
     17 N17        -8.2200    0.5588   52.1182 N.am    1  ZINC000050607728   -0.7100
     18 C18        -9.5410    0.7880   52.2554 C.2     1  ZINC000050607728    0.5700
     19 O19        -9.9859    1.9050   52.0771 O.2     1  ZINC000050607728   -0.5200
     20 C20       -10.4491   -0.3195   52.6226 C.ar    1  ZINC000050607728   -0.1400
     21 C21        -9.9353   -1.5918   52.8784 C.ar    1  ZINC000050607728   -0.0800
     22 C22       -10.7882   -2.6206   53.2210 C.ar    1  ZINC000050607728   -0.1300
     23 C23       -12.1500   -2.3935   53.3110 C.ar    1  ZINC000050607728   -0.0900
     24 C24       -12.6658   -1.1348   53.0584 C.ar    1  ZINC000050607728   -0.1300
     25 C25       -11.8233   -0.0958   52.7208 C.ar    1  ZINC000050607728   -0.0600
     26 C26        -7.3527    2.7094   52.8336 C.ar    1  ZINC000050607728   -0.1000
     27 C27        -7.8085    3.9816   52.5432 C.ar    1  ZINC000050607728   -0.1000
     28 C28        -7.8387    4.9475   53.5317 C.ar    1  ZINC000050607728   -0.1200
     29 C29        -7.4133    4.6409   54.8107 C.ar    1  ZINC000050607728   -0.1100
     30 C30        -6.9582    3.3684   55.1013 C.ar    1  ZINC000050607728   -0.1200
     31 C31        -6.9321    2.4013   54.1139 C.ar    1  ZINC000050607728   -0.0800
     32 C32        -1.7087    1.5735   50.1751 C.ar    1  ZINC000050607728   -0.0400
     33 H33        -2.3385    0.9386   47.0555 H       1  ZINC000050607728    0.0600
     34 H34        -1.9030    2.6320   47.3886 H       1  ZINC000050607728    0.0800
     35 H35        -1.6191    1.9413   45.7728 H       1  ZINC000050607728    0.0700
     36 H36         1.1266    1.3257   45.7074 H       1  ZINC000050607728    0.0600
     37 H37         1.3013   -0.0116   46.8690 H       1  ZINC000050607728    0.0800
     38 H38        -0.0159   -0.0388   45.6721 H       1  ZINC000050607728    0.0700
     39 H39         0.1537    4.1988   49.0985 H       1  ZINC000050607728    0.1400
     40 H40        -1.3153    5.3737   50.6836 H       1  ZINC000050607728    0.1400
     41 H41        -3.0233    4.1274   51.9405 H       1  ZINC000050607728    0.1300
     42 H42        -3.5039    0.4252   51.6018 H       1  ZINC000050607728    0.0900
     43 H43        -3.4074    1.6302   52.9083 H       1  ZINC000050607728    0.0900
     44 H44        -7.8652   -0.3329   52.2593 H       1  ZINC000050607728    0.4100
     45 H45        -8.8726   -1.7705   52.8077 H       1  ZINC000050607728    0.1300
     46 H46       -10.3919   -3.6056   53.4192 H       1  ZINC000050607728    0.1300
     47 H47       -12.8133   -3.2024   53.5793 H       1  ZINC000050607728    0.1300
     48 H48       -13.7298   -0.9642   53.1300 H       1  ZINC000050607728    0.1300
     49 H49       -12.2272    0.8864   52.5241 H       1  ZINC000050607728    0.1400
     50 H50        -8.1410    4.2211   51.5439 H       1  ZINC000050607728    0.1200
     51 H51        -8.1943    5.9417   53.3046 H       1  ZINC000050607728    0.1200
     52 H52        -7.4362    5.3957   55.5828 H       1  ZINC000050607728    0.1200
     53 H53        -6.6255    3.1290   56.1006 H       1  ZINC000050607728    0.1300
     54 H54        -6.5765    1.4072   54.3410 H       1  ZINC000050607728    0.1300
     55 H55        -1.8200    0.5083   50.0355 H       1  ZINC000050607728    0.1300
@<TRIPOS>BOND
     1     1     2    1
     2     1    33    1
     3     1    34    1
     4     1    35    1
     5     2     3    1
     6     2     4   am
     7     3    36    1
     8     3    37    1
     9     3    38    1
    10     4     5    2
    11     4     6    1
    12     6    32   ar
    13     6     7   ar
    14     7     8   ar
    15     7    39    1
    16     8     9   ar
    17     8    40    1
    18     9    10   ar
    19     9    41    1
    20    10    11    1
    21    10    32   ar
    22    11    12    1
    23    11    42    1
    24    11    43    1
    25    12    13    1
    26    13    14    2
    27    13    15    1
    28    15    16    1
    29    15    17    1
    30    15    26    1
    31    17    18   am
    32    17    44    1
    33    18    19    2
    34    18    20    1
    35    20    25   ar
    36    20    21   ar
    37    21    22   ar
    38    21    45    1
    39    22    23   ar
    40    22    46    1
    41    23    24   ar
    42    23    47    1
    43    24    25   ar
    44    24    48    1
    45    25    49    1
    46    26    31   ar
    47    26    27   ar
    48    27    28   ar
    49    27    50    1
    50    28    29   ar
    51    28    51    1
    52    29    30   ar
    53    29    52    1
    54    30    31   ar
    55    30    53    1
    56    31    54    1
    57    32    55    1
@<TRIPOS>SUBSTRUCTURE
     1 ZINC000050607728        1 TEMP              0 ****  ****    0 ROOT


##########                                Name:    ZINC001207290212
##########                DOCK_Rotatable_Bonds:                   8
##########                         Heavy_Atoms:                  23
##########                    Molecular_Weight:             344.435
##########                DOCK_Rotatable_Bonds:                   8
##########                       Formal_Charge:               -0.03
##########                     HBond_Acceptors:                   9
##########                        HBond_Donors:                   2
##########                         Heavy_Atoms:                  23
##########                          Grid_Score:          -32.175987
##########                     Grid_vdw_energy:          -32.006039
##########                      Grid_es_energy:           -0.169949
##########           Internal_energy_repulsive:            5.409754

@<TRIPOS>MOLECULE
ZINC001207290212
 47 48 1 0 0
SMALL
USER_CHARGES


@<TRIPOS>ATOM
      1 C1        -17.3199   -1.1194   60.9792 C.3     1  ZINC001207290212   -0.1500
      2 C2        -17.0730   -1.7633   59.6134 C.3     1  ZINC001207290212   -0.6300
      3 S3        -15.4974   -2.6615   59.6443 S.o2    1  ZINC001207290212    2.6100
      4 O4        -14.4081   -1.7544   59.7441 O.2     1  ZINC001207290212   -0.9500
      5 O5        -15.5866   -3.7957   60.4958 O.2     1  ZINC001207290212   -0.9500
      6 N6        -15.3572   -3.3024   58.1238 N.am    1  ZINC001207290212   -1.1100
      7 C7        -14.1848   -4.1081   57.7738 C.3     1  ZINC001207290212    0.0900
      8 C8        -13.9965   -4.0979   56.2786 C.2     1  ZINC001207290212    0.5100
      9 O9        -14.7348   -4.7489   55.5699 O.2     1  ZINC001207290212   -0.5300
     10 N10       -13.0077   -3.3654   55.7289 N.am    1  ZINC001207290212   -0.7200
     11 C11       -12.8257   -3.3541   54.2753 C.3     1  ZINC001207290212    0.1400
     12 H12       -13.2772   -4.2413   53.8312 H       1  ZINC001207290212    0.1000
     13 C13       -11.3279   -3.2843   53.9246 C.3     1  ZINC001207290212    0.0200
     14 N14       -11.1131   -2.0196   53.1885 N.3     1  ZINC001207290212   -0.5100
     15 C15       -10.0711   -2.1766   52.1650 C.3     1  ZINC001207290212    0.1300
     16 C16        -9.0790   -1.0482   52.2809 C.2     1  ZINC001207290212    0.0000
     17 C17        -9.1769    0.0124   53.0992 C.2     1  ZINC001207290212   -0.0700
     18 O18        -8.0870    0.7767   52.8900 O.3     1  ZINC001207290212   -0.2000
     19 C19        -7.3415    0.1771   51.9522 C.2     1  ZINC001207290212    0.1900
     20 C20        -6.0308    0.6891   51.4130 C.3     1  ZINC001207290212   -0.0600
     21 N21        -7.9332   -0.9247   51.5878 N.2     1  ZINC001207290212   -0.4700
     22 C22       -12.4210   -1.6841   52.5697 C.3     1  ZINC001207290212    0.0400
     23 C23       -13.4452   -2.0750   53.6669 C.3     1  ZINC001207290212   -0.1000
     24 H24       -13.5230   -1.2900   54.4191 H       1  ZINC001207290212    0.0900
     25 C25       -14.8141   -2.3686   53.0498 C.3     1  ZINC001207290212   -0.1400
     26 H26       -17.3586   -1.8945   61.7446 H       1  ZINC001207290212    0.0700
     27 H27       -16.5105   -0.4254   61.2054 H       1  ZINC001207290212    0.0700
     28 H28       -18.2667   -0.5796   60.9606 H       1  ZINC001207290212    0.0800
     29 H29       -17.8826   -2.4573   59.3872 H       1  ZINC001207290212    0.1300
     30 H30       -17.0345   -0.9882   58.8480 H       1  ZINC001207290212    0.1300
     31 H31       -16.0513   -3.1443   57.4649 H       1  ZINC001207290212    0.4300
     32 H32       -13.3002   -3.6902   58.2542 H       1  ZINC001207290212    0.1000
     33 H33       -14.3334   -5.1329   58.1142 H       1  ZINC001207290212    0.1100
     34 H34       -12.4165   -2.8458   56.2958 H       1  ZINC001207290212    0.4100
     35 H35       -10.7322   -3.2883   54.8376 H       1  ZINC001207290212    0.0800
     36 H36       -11.0538   -4.1312   53.2956 H       1  ZINC001207290212    0.0500
     37 H37        -9.5586   -3.1275   52.3111 H       1  ZINC001207290212    0.0600
     38 H38       -10.5282   -2.1585   51.1756 H       1  ZINC001207290212    0.1000
     39 H39        -9.9787    0.2149   53.7941 H       1  ZINC001207290212    0.2100
     40 H40        -5.7780    1.6288   51.9042 H       1  ZINC001207290212    0.0900
     41 H41        -5.2473   -0.0438   51.6058 H       1  ZINC001207290212    0.1000
     42 H42        -6.1188    0.8527   50.3389 H       1  ZINC001207290212    0.1000
     43 H43       -12.4804   -0.6183   52.3497 H       1  ZINC001207290212    0.0900
     44 H44       -12.5821   -2.2738   51.6672 H       1  ZINC001207290212    0.0500
     45 H45       -14.7196   -3.1757   52.3233 H       1  ZINC001207290212    0.0600
     46 H46       -15.5101   -2.6656   53.8343 H       1  ZINC001207290212    0.0600
     47 H47       -15.1878   -1.4737   52.5523 H       1  ZINC001207290212    0.0600
@<TRIPOS>BOND
     1     1     2    1
     2     1    26    1
     3     1    27    1
     4     1    28    1
     5     2     3    1
     6     2    29    1
     7     2    30    1
     8     3     4    2
     9     3     5    2
    10     3     6   am
    11     6     7    1
    12     6    31    1
    13     7     8    1
    14     7    32    1
    15     7    33    1
    16     8     9    2
    17     8    10   am
    18    10    11    1
    19    10    34    1
    20    11    12    1
    21    11    23    1
    22    11    13    1
    23    13    14    1
    24    13    35    1
    25    13    36    1
    26    14    15    1
    27    14    22    1
    28    15    16    1
    29    15    37    1
    30    15    38    1
    31    16    21    1
    32    16    17    2
    33    17    18    1
    34    17    39    1
    35    18    19    1
    36    19    20    1
    37    19    21    2
    38    20    40    1
    39    20    41    1
    40    20    42    1
    41    22    23    1
    42    22    43    1
    43    22    44    1
    44    23    24    1
    45    23    25    1
    46    25    45    1
    47    25    46    1
    48    25    47    1
@<TRIPOS>SUBSTRUCTURE
     1 ZINC001207290212        1 TEMP              0 ****  ****    0 ROOT


##########                                Name:    ZINC001085711660
##########                DOCK_Rotatable_Bonds:                   8
##########                         Heavy_Atoms:                  25
##########                    Molecular_Weight:             347.414
##########                DOCK_Rotatable_Bonds:                   8
##########                       Formal_Charge:         -0.00999993
##########                     HBond_Acceptors:                   7
##########                        HBond_Donors:                   0
##########                         Heavy_Atoms:                  25
##########                          Grid_Score:          -32.167229
##########                     Grid_vdw_energy:          -31.701679
##########                      Grid_es_energy:           -0.465550
##########           Internal_energy_repulsive:           10.512581

@<TRIPOS>MOLECULE
ZINC001085711660
 50 52 1 0 0
SMALL
USER_CHARGES


@<TRIPOS>ATOM
      1 C1         -8.3848    0.9959   64.5918 C.3     1  ZINC001085711660    0.0300
      2 O2         -9.1194    0.0636   63.7960 O.3     1  ZINC001085711660   -0.3800
      3 C3         -8.8285    0.1360   62.3988 C.3     1  ZINC001085711660    0.1400
      4 C4         -9.7402   -0.7988   61.6466 C.2     1  ZINC001085711660    0.0100
      5 C5        -10.9889   -1.1524   62.0232 C.2     1  ZINC001085711660   -0.1900
      6 C6        -11.4813   -2.0323   61.0466 C.2     1  ZINC001085711660   -0.1200
      7 C7        -10.4957   -2.1727   60.1120 C.2     1  ZINC001085711660   -0.0700
      8 C8        -10.5654   -3.0014   58.9041 C.2     1  ZINC001085711660    0.6000
      9 O9        -10.6378   -4.2124   59.0002 O.2     1  ZINC001085711660   -0.5200
     10 N10       -10.5493   -2.4217   57.6874 N.am    1  ZINC001085711660   -0.6000
     11 C11       -10.4620   -0.9639   57.5716 C.3     1  ZINC001085711660    0.0700
     12 C12       -10.6189   -3.2495   56.4806 C.3     1  ZINC001085711660    0.1300
     13 C13       -12.0500   -3.2429   55.9397 C.3     1  ZINC001085711660    0.0000
     14 H14       -12.5973   -2.3388   56.2067 H       1  ZINC001085711660    0.1000
     15 C15       -12.8224   -4.5357   56.2374 C.3     1  ZINC001085711660   -0.1400
     16 C16       -13.3710   -4.3309   54.8183 C.3     1  ZINC001085711660    0.0100
     17 N17       -12.1382   -3.5814   54.5069 N.3     1  ZINC001085711660   -0.4500
     18 C18       -12.4359   -2.3902   53.7003 C.3     1  ZINC001085711660    0.1500
     19 H19       -13.1344   -1.7510   54.2403 H       1  ZINC001085711660    0.1000
     20 C20       -13.0595   -2.8178   52.3701 C.3     1  ZINC001085711660   -0.1900
     21 C21       -11.1612   -1.6309   53.4365 C.2     1  ZINC001085711660    0.2000
     22 N22       -10.8797   -0.4414   53.8867 N.2     1  ZINC001085711660   -0.4700
     23 C23        -9.6581   -0.0917   53.4466 C.2     1  ZINC001085711660   -0.0400
     24 C24        -9.1861   -1.1070   52.7044 C.2     1  ZINC001085711660   -0.0500
     25 C25        -7.8511   -1.1611   52.0071 C.3     1  ZINC001085711660   -0.0700
     26 O26       -10.1285   -2.0702   52.7051 O.3     1  ZINC001085711660   -0.2000
     27 O27        -9.4487   -1.4115   60.4919 O.3     1  ZINC001085711660   -0.1500
     28 H28        -7.3171    0.8105   64.4756 H       1  ZINC001085711660    0.0500
     29 H29        -8.6149    2.0109   64.2675 H       1  ZINC001085711660    0.0500
     30 H30        -8.6624    0.8775   65.6392 H       1  ZINC001085711660    0.0900
     31 H31        -8.9840    1.1560   62.0476 H       1  ZINC001085711660    0.0900
     32 H32        -7.7913   -0.1526   62.2283 H       1  ZINC001085711660    0.0700
     33 H33       -11.5101   -0.8204   62.9090 H       1  ZINC001085711660    0.1600
     34 H34       -12.4516   -2.5065   61.0365 H       1  ZINC001085711660    0.1600
     35 H35        -9.4185   -0.6560   57.6368 H       1  ZINC001085711660    0.0600
     36 H36       -10.8742   -0.6503   56.6126 H       1  ZINC001085711660    0.0900
     37 H37       -11.0286   -0.5008   58.3795 H       1  ZINC001085711660    0.0800
     38 H38        -9.9431   -2.8484   55.7254 H       1  ZINC001085711660    0.0900
     39 H39       -10.3271   -4.2712   56.7236 H       1  ZINC001085711660    0.0900
     40 H40       -12.1910   -5.4172   56.3489 H       1  ZINC001085711660    0.1000
     41 H41       -13.5708   -4.4376   57.0237 H       1  ZINC001085711660    0.0800
     42 H42       -13.4708   -5.2577   54.2534 H       1  ZINC001085711660    0.0900
     43 H43       -14.2712   -3.7172   54.7852 H       1  ZINC001085711660    0.0800
     44 H44       -12.4092   -3.5425   51.8803 H       1  ZINC001085711660    0.0800
     45 H45       -14.0338   -3.2701   52.5544 H       1  ZINC001085711660    0.0800
     46 H46       -13.1796   -1.9451   51.7281 H       1  ZINC001085711660    0.0700
     47 H47        -9.1485    0.8380   53.6525 H       1  ZINC001085711660    0.1800
     48 H48        -7.1079   -1.5913   52.6783 H       1  ZINC001085711660    0.0800
     49 H49        -7.9333   -1.7783   51.1124 H       1  ZINC001085711660    0.0800
     50 H50        -7.5468   -0.1529   51.7263 H       1  ZINC001085711660    0.0900
@<TRIPOS>BOND
     1     1     2    1
     2     1    28    1
     3     1    29    1
     4     1    30    1
     5     2     3    1
     6     3     4    1
     7     3    31    1
     8     3    32    1
     9     4    27    1
    10     4     5    2
    11     5     6    1
    12     5    33    1
    13     6     7    2
    14     6    34    1
    15     7     8    1
    16     7    27    1
    17     8     9    2
    18     8    10   am
    19    10    11    1
    20    10    12    1
    21    11    35    1
    22    11    36    1
    23    11    37    1
    24    12    13    1
    25    12    38    1
    26    12    39    1
    27    13    14    1
    28    13    17    1
    29    13    15    1
    30    15    16    1
    31    15    40    1
    32    15    41    1
    33    16    17    1
    34    16    42    1
    35    16    43    1
    36    17    18    1
    37    18    19    1
    38    18    20    1
    39    18    21    1
    40    20    44    1
    41    20    45    1
    42    20    46    1
    43    21    26    1
    44    21    22    2
    45    22    23    1
    46    23    24    2
    47    23    47    1
    48    24    25    1
    49    24    26    1
    50    25    48    1
    51    25    49    1
    52    25    50    1
@<TRIPOS>SUBSTRUCTURE
     1 ZINC001085711660        1 TEMP              0 ****  ****    0 ROOT


##########                                Name:    ZINC000462219577
##########                DOCK_Rotatable_Bonds:                   8
##########                         Heavy_Atoms:                  31
##########                    Molecular_Weight:             418.539
##########                DOCK_Rotatable_Bonds:                   8
##########                       Formal_Charge:         -0.00999914
##########                     HBond_Acceptors:                   6
##########                        HBond_Donors:                   2
##########                         Heavy_Atoms:                  31
##########                          Grid_Score:          -32.137123
##########                     Grid_vdw_energy:          -32.556171
##########                      Grid_es_energy:            0.419048
##########           Internal_energy_repulsive:           93.213432

@<TRIPOS>MOLECULE
ZINC000462219577
 61 64 1 0 0
SMALL
USER_CHARGES


@<TRIPOS>ATOM
      1 C1         -6.8237   -0.7852   51.4489 C.3     1  ZINC000462219577   -0.0700
      2 C2         -6.6027    0.5777   52.0529 C.2     1  ZINC000462219577    0.0800
      3 N3         -7.5292    1.3531   52.5560 N.2     1  ZINC000462219577   -0.2900
      4 N4         -6.9171    2.5275   53.0126 N.pl3   1  ZINC000462219577   -0.3200
      5 C5         -7.5642    3.6132   53.6189 C.ar    1  ZINC000462219577    0.1500
      6 C6         -6.8328    4.7224   54.0218 C.ar    1  ZINC000462219577   -0.1100
      7 C7         -7.4732    5.7905   54.6189 C.ar    1  ZINC000462219577   -0.1000
      8 C8         -8.8415    5.7558   54.8160 C.ar    1  ZINC000462219577   -0.1200
      9 C9         -9.5727    4.6523   54.4162 C.ar    1  ZINC000462219577   -0.1000
     10 C10        -8.9387    3.5840   53.8126 C.ar    1  ZINC000462219577   -0.1300
     11 C11        -5.5913    2.4282   52.7654 C.2     1  ZINC000462219577    0.0900
     12 C12        -4.5464    3.4638   53.0917 C.3     1  ZINC000462219577   -0.0800
     13 C13        -3.1548    2.8847   52.8282 C.3     1  ZINC000462219577    0.1700
     14 H14        -3.1427    1.8296   53.1015 H       1  ZINC000462219577    0.1000
     15 C15        -2.1211    3.6404   53.6657 C.3     1  ZINC000462219577   -0.1600
     16 N16        -2.8287    3.0250   51.4070 N.am    1  ZINC000462219577   -0.7400
     17 C17        -1.7639    2.3780   50.8929 C.2     1  ZINC000462219577    0.7100
     18 O18        -1.0749    1.6770   51.6085 O.2     1  ZINC000462219577   -0.5800
     19 N19        -1.4629    2.5083   49.5856 N.am    1  ZINC000462219577   -0.7400
     20 C20        -0.3065    1.8038   49.0265 C.3     1  ZINC000462219577    0.1600
     21 H21         0.3128    1.4191   49.8367 H       1  ZINC000462219577    0.1000
     22 C22        -0.7880    0.6410   48.1532 C.3     1  ZINC000462219577   -0.1700
     23 C23        -1.5928    1.1969   46.9754 C.3     1  ZINC000462219577    0.0700
     24 O24        -0.7811    2.1103   46.2345 O.3     1  ZINC000462219577   -0.3700
     25 C25        -0.3408    3.2424   46.9872 C.3     1  ZINC000462219577    0.1400
     26 H26        -1.2063    3.7885   47.3625 H       1  ZINC000462219577    0.0600
     27 C27         0.4787    4.1463   46.1025 C.ar    1  ZINC000462219577   -0.0900
     28 C28         1.2939    3.6043   45.1265 C.ar    1  ZINC000462219577   -0.0900
     29 C29         2.0455    4.4334   44.3150 C.ar    1  ZINC000462219577   -0.1200
     30 C30         1.9818    5.8044   44.4793 C.ar    1  ZINC000462219577   -0.1200
     31 C31         1.1659    6.3464   45.4548 C.ar    1  ZINC000462219577   -0.1200
     32 C32         0.4110    5.5175   46.2634 C.ar    1  ZINC000462219577   -0.1100
     33 C33         0.5155    2.7694   48.1672 C.3     1  ZINC000462219577   -0.1500
     34 C34        -5.3708    1.2293   52.1780 C.2     1  ZINC000462219577   -0.2600
     35 H35        -6.7428   -1.5447   52.2265 H       1  ZINC000462219577    0.0800
     36 H36        -7.8168   -0.8275   51.0014 H       1  ZINC000462219577    0.0700
     37 H37        -6.0715   -0.9689   50.6818 H       1  ZINC000462219577    0.0800
     38 H38        -5.7640    4.7498   53.8688 H       1  ZINC000462219577    0.1300
     39 H39        -6.9048    6.6536   54.9325 H       1  ZINC000462219577    0.1300
     40 H40        -9.3400    6.5921   55.2834 H       1  ZINC000462219577    0.1300
     41 H41       -10.6410    4.6278   54.5720 H       1  ZINC000462219577    0.1300
     42 H42        -9.5104    2.7224   53.5004 H       1  ZINC000462219577    0.1300
     43 H43        -4.6984    4.3432   52.4660 H       1  ZINC000462219577    0.0900
     44 H44        -4.6296    3.7458   54.1413 H       1  ZINC000462219577    0.1100
     45 H45        -2.1333    4.6956   53.3925 H       1  ZINC000462219577    0.0600
     46 H46        -2.3637    3.5361   54.7232 H       1  ZINC000462219577    0.0700
     47 H47        -1.1297    3.2280   53.4779 H       1  ZINC000462219577    0.0700
     48 H48        -3.3791    3.5833   50.8358 H       1  ZINC000462219577    0.3900
     49 H49        -2.0119    3.0686   49.0150 H       1  ZINC000462219577    0.3900
     50 H50         0.0723    0.0872   47.7774 H       1  ZINC000462219577    0.0800
     51 H51        -1.4192   -0.0219   48.7450 H       1  ZINC000462219577    0.0800
     52 H52        -1.9018    0.3769   46.3271 H       1  ZINC000462219577    0.1000
     53 H53        -2.4747    1.7162   47.3505 H       1  ZINC000462219577    0.0500
     54 H54         1.3436    2.5331   44.9981 H       1  ZINC000462219577    0.1300
     55 H55         2.6829    4.0099   43.5528 H       1  ZINC000462219577    0.1200
     56 H56         2.5696    6.4521   43.8458 H       1  ZINC000462219577    0.1200
     57 H57         1.1164    7.4176   45.5833 H       1  ZINC000462219577    0.1200
     58 H58        -0.2264    5.9410   47.0256 H       1  ZINC000462219577    0.1200
     59 H59         0.8153    3.6286   48.7673 H       1  ZINC000462219577    0.0800
     60 H60         1.4023    2.2586   47.7921 H       1  ZINC000462219577    0.0900
     61 H61        -4.4138    0.8460   51.8560 H       1  ZINC000462219577    0.1500
@<TRIPOS>BOND
     1     1     2    1
     2     1    35    1
     3     1    36    1
     4     1    37    1
     5     2    34    1
     6     2     3    2
     7     3     4    1
     8     4     5    1
     9     4    11    1
    10     5    10   ar
    11     5     6   ar
    12     6     7   ar
    13     6    38    1
    14     7     8   ar
    15     7    39    1
    16     8     9   ar
    17     8    40    1
    18     9    10   ar
    19     9    41    1
    20    10    42    1
    21    11    12    1
    22    11    34    2
    23    12    13    1
    24    12    43    1
    25    12    44    1
    26    13    14    1
    27    13    15    1
    28    13    16    1
    29    15    45    1
    30    15    46    1
    31    15    47    1
    32    16    17   am
    33    16    48    1
    34    17    18    2
    35    17    19   am
    36    19    20    1
    37    19    49    1
    38    20    21    1
    39    20    33    1
    40    20    22    1
    41    22    23    1
    42    22    50    1
    43    22    51    1
    44    23    24    1
    45    23    52    1
    46    23    53    1
    47    24    25    1
    48    25    26    1
    49    25    27    1
    50    25    33    1
    51    27    32   ar
    52    27    28   ar
    53    28    29   ar
    54    28    54    1
    55    29    30   ar
    56    29    55    1
    57    30    31   ar
    58    30    56    1
    59    31    32   ar
    60    31    57    1
    61    32    58    1
    62    33    59    1
    63    33    60    1
    64    34    61    1
@<TRIPOS>SUBSTRUCTURE
     1 ZINC000462219577        1 TEMP              0 ****  ****    0 ROOT


##########                                Name:    ZINC000015179664
##########                DOCK_Rotatable_Bonds:                   8
##########                         Heavy_Atoms:                  25
##########                    Molecular_Weight:             361.422
##########                DOCK_Rotatable_Bonds:                   8
##########                       Formal_Charge:        -2.23517e-07
##########                     HBond_Acceptors:                   8
##########                        HBond_Donors:                   1
##########                         Heavy_Atoms:                  25
##########                          Grid_Score:          -32.125912
##########                     Grid_vdw_energy:          -32.554531
##########                      Grid_es_energy:            0.428618
##########           Internal_energy_repulsive:           21.100306

@<TRIPOS>MOLECULE
ZINC000015179664
 44 45 1 0 0
SMALL
USER_CHARGES


@<TRIPOS>ATOM
      1 C1        -11.8826   -1.0469   51.5540 C.3     1  ZINC000015179664   -0.1600
      2 C2        -11.4381   -0.8479   53.0045 C.3     1  ZINC000015179664    0.1800
      3 H3        -12.1984   -0.2826   53.5432 H       1  ZINC000015179664    0.1200
      4 C4        -10.1356   -0.0904   53.0313 C.ar    1  ZINC000015179664   -0.1000
      5 C5        -10.0740    1.1576   53.6220 C.ar    1  ZINC000015179664   -0.0700
      6 C6         -8.8790    1.8525   53.6467 C.ar    1  ZINC000015179664   -0.1200
      7 C7         -7.7459    1.2990   53.0809 C.ar    1  ZINC000015179664   -0.0500
      8 C8         -7.8073    0.0502   52.4909 C.ar    1  ZINC000015179664   -0.0400
      9 N9         -6.5939   -0.5424   51.8845 N.pl3   1  ZINC000015179664    0.0300
     10 O10        -5.5414    0.0701   51.9055 O.2     1  ZINC000015179664   -0.1600
     11 O11        -6.6481   -1.6426   51.3647 O.2     1  ZINC000015179664   -0.1500
     12 C12        -9.0009   -0.6464   52.4700 C.ar    1  ZINC000015179664   -0.0400
     13 N13       -11.2566   -2.1539   53.6430 N.am    1  ZINC000015179664   -0.6100
     14 C14       -11.0904   -3.3548   52.8205 C.3     1  ZINC000015179664    0.0600
     15 C15       -11.2424   -2.2506   54.9872 C.2     1  ZINC000015179664    0.5200
     16 O16       -11.3786   -1.2563   55.6682 O.2     1  ZINC000015179664   -0.5200
     17 C17       -11.0576   -3.5942   55.6441 C.3     1  ZINC000015179664   -0.1500
     18 C18       -10.8618   -3.4034   57.1495 C.3     1  ZINC000015179664    0.1300
     19 N19       -12.1682   -3.3700   57.8116 N.am    1  ZINC000015179664   -0.7300
     20 C20       -12.3316   -2.6586   58.9445 C.2     1  ZINC000015179664    0.5800
     21 O21       -11.3939   -2.0454   59.4182 O.2     1  ZINC000015179664   -0.5300
     22 C22       -13.6447   -2.6236   59.6087 C.2     1  ZINC000015179664   -0.1500
     23 C23       -13.8330   -2.1617   60.8740 C.2     1  ZINC000015179664   -0.2200
     24 S24       -15.4748   -2.2678   61.3195 S.3     1  ZINC000015179664    0.1900
     25 C25       -15.9294   -2.9511   59.7681 C.2     1  ZINC000015179664   -0.2300
     26 C26       -14.8665   -3.0708   58.9815 C.2     1  ZINC000015179664   -0.0900
     27 H27       -12.0176   -0.0752   51.0789 H       1  ZINC000015179664    0.0800
     28 H28       -11.1222   -1.6122   51.0152 H       1  ZINC000015179664    0.0600
     29 H29       -12.8247   -1.5948   51.5346 H       1  ZINC000015179664    0.0700
     30 H30       -10.9593    1.5901   54.0641 H       1  ZINC000015179664    0.1500
     31 H31        -8.8310    2.8280   54.1075 H       1  ZINC000015179664    0.1500
     32 H32        -6.8126    1.8421   53.0995 H       1  ZINC000015179664    0.1600
     33 H33        -9.0490   -1.6219   52.0091 H       1  ZINC000015179664    0.1600
     34 H34       -10.0355   -3.4879   52.5808 H       1  ZINC000015179664    0.0600
     35 H35       -11.4506   -4.2244   53.3702 H       1  ZINC000015179664    0.0800
     36 H36       -11.6616   -3.2456   51.8985 H       1  ZINC000015179664    0.0800
     37 H37       -11.9399   -4.2094   55.4676 H       1  ZINC000015179664    0.1000
     38 H38       -10.1811   -4.0869   55.2233 H       1  ZINC000015179664    0.1000
     39 H39       -10.2740   -4.2307   57.5472 H       1  ZINC000015179664    0.0800
     40 H40       -10.3380   -2.4650   57.3317 H       1  ZINC000015179664    0.0800
     41 H41       -12.9157   -3.8599   57.4344 H       1  ZINC000015179664    0.4000
     42 H42       -13.0484   -1.7794   61.5102 H       1  ZINC000015179664    0.1700
     43 H43       -16.9346   -3.2316   59.4905 H       1  ZINC000015179664    0.1700
     44 H44       -14.9098   -3.4687   57.9784 H       1  ZINC000015179664    0.1600
@<TRIPOS>BOND
     1     1     2    1
     2     1    27    1
     3     1    28    1
     4     1    29    1
     5     2     3    1
     6     2     4    1
     7     2    13    1
     8     4    12   ar
     9     4     5   ar
    10     5     6   ar
    11     5    30    1
    12     6     7   ar
    13     6    31    1
    14     7     8   ar
    15     7    32    1
    16     8     9    1
    17     8    12   ar
    18     9    10    2
    19     9    11    2
    20    12    33    1
    21    13    14    1
    22    13    15   am
    23    14    34    1
    24    14    35    1
    25    14    36    1
    26    15    16    2
    27    15    17    1
    28    17    18    1
    29    17    37    1
    30    17    38    1
    31    18    19    1
    32    18    39    1
    33    18    40    1
    34    19    20   am
    35    19    41    1
    36    20    21    2
    37    20    22    1
    38    22    26    1
    39    22    23    2
    40    23    24    1
    41    23    42    1
    42    24    25    1
    43    25    26    2
    44    25    43    1
    45    26    44    1
@<TRIPOS>SUBSTRUCTURE
     1 ZINC000015179664        1 TEMP              0 ****  ****    0 ROOT


##########                                Name:    ZINC000190927708
##########                DOCK_Rotatable_Bonds:                  10
##########                         Heavy_Atoms:                  26
##########                    Molecular_Weight:             358.437
##########                DOCK_Rotatable_Bonds:                  10
##########                       Formal_Charge:           0.0499998
##########                     HBond_Acceptors:                   6
##########                        HBond_Donors:                   1
##########                         Heavy_Atoms:                  26
##########                          Grid_Score:          -32.108742
##########                     Grid_vdw_energy:          -30.569185
##########                      Grid_es_energy:           -1.539555
##########           Internal_energy_repulsive:           21.444908

@<TRIPOS>MOLECULE
ZINC000190927708
 52 53 1 0 0
SMALL
USER_CHARGES


@<TRIPOS>ATOM
      1 C1         -0.1377    0.8586   46.2627 C.3     1  ZINC000190927708   -0.1500
      2 C2         -0.1678    0.9108   47.7916 C.3     1  ZINC000190927708   -0.1500
      3 C3         -0.3139    2.3634   48.2494 C.3     1  ZINC000190927708    0.1000
      4 N4         -0.5795    2.3970   49.6897 N.am    1  ZINC000190927708   -0.5900
      5 C5         -1.8183    2.1373   50.1528 C.2     1  ZINC000190927708    0.5300
      6 O6         -2.7135    1.8772   49.3770 O.2     1  ZINC000190927708   -0.5300
      7 C7         -2.0911    2.1701   51.6345 C.3     1  ZINC000190927708   -0.0800
      8 C8         -3.5723    2.0326   51.8758 C.2     1  ZINC000190927708   -0.1700
      9 C9         -4.1906    0.8519   51.6260 C.2     1  ZINC000190927708    0.0000
     10 C10        -5.6304    0.7509   51.8713 C.ar    1  ZINC000190927708   -0.1300
     11 C11        -6.3230   -0.4405   51.6335 C.ar    1  ZINC000190927708   -0.0500
     12 C12        -7.6667   -0.5023   51.8736 C.ar    1  ZINC000190927708   -0.1500
     13 C13        -8.3506    0.6069   52.3512 C.ar    1  ZINC000190927708   -0.0600
     14 C14        -7.6885    1.7916   52.5923 C.ar    1  ZINC000190927708   -0.1600
     15 C15        -6.3208    1.8782   52.3559 C.ar    1  ZINC000190927708    0.1900
     16 N16        -5.6332    3.0503   52.5887 N.am    1  ZINC000190927708   -0.6300
     17 C17        -4.3097    3.1315   52.3663 C.2     1  ZINC000190927708    0.5500
     18 O18        -3.7342    4.1839   52.5832 O.2     1  ZINC000190927708   -0.5300
     19 C19         0.5014    2.7130   50.6268 C.3     1  ZINC000190927708    0.1500
     20 H20         0.2322    2.3630   51.6234 H       1  ZINC000190927708    0.1400
     21 C21         0.7214    4.2267   50.6600 C.3     1  ZINC000190927708   -0.1300
     22 C22         1.6122    4.5867   51.8505 C.3     1  ZINC000190927708   -0.1500
     23 C23         1.7688    2.0308   50.1802 C.2     1  ZINC000190927708    0.4500
     24 O24         2.4999    2.5741   49.3864 O.2     1  ZINC000190927708   -0.5000
     25 O25         2.0855    0.8196   50.6645 O.3     1  ZINC000190927708   -0.3500
     26 C26         3.2882    0.1951   50.1431 C.3     1  ZINC000190927708    0.0600
     27 C27         3.4376   -1.2042   50.7435 C.3     1  ZINC000190927708   -0.1500
     28 H28         0.7069    1.4419   45.8958 H       1  ZINC000190927708    0.0600
     29 H29        -0.0336   -0.1762   45.9366 H       1  ZINC000190927708    0.0600
     30 H30        -1.0648    1.2729   45.8667 H       1  ZINC000190927708    0.0600
     31 H31        -1.0124    0.3276   48.1585 H       1  ZINC000190927708    0.0800
     32 H32         0.7594    0.4965   48.1876 H       1  ZINC000190927708    0.0700
     33 H33         0.6074    2.9057   48.0370 H       1  ZINC000190927708    0.0900
     34 H34        -1.1418    2.8308   47.7164 H       1  ZINC000190927708    0.0900
     35 H35        -1.5660    1.3469   52.1190 H       1  ZINC000190927708    0.1100
     36 H36        -1.7420    3.1167   52.0473 H       1  ZINC000190927708    0.1200
     37 H37        -3.6333    0.0049   51.2541 H       1  ZINC000190927708    0.1400
     38 H38        -5.7980   -1.3080   51.2616 H       1  ZINC000190927708    0.1400
     39 H39        -8.2014   -1.4225   51.6895 H       1  ZINC000190927708    0.1300
     40 H40        -9.4127    0.5412   52.5357 H       1  ZINC000190927708    0.1300
     41 H41        -8.2298    2.6492   52.9640 H       1  ZINC000190927708    0.1300
     42 H42        -6.1105    3.8264   52.9216 H       1  ZINC000190927708    0.4200
     43 H43         1.2042    4.5440   49.7357 H       1  ZINC000190927708    0.0900
     44 H44        -0.2397    4.7313   50.7596 H       1  ZINC000190927708    0.0800
     45 H45         1.7689    5.6651   51.8742 H       1  ZINC000190927708    0.0600
     46 H46         1.1294    4.2694   52.7748 H       1  ZINC000190927708    0.0600
     47 H47         2.5732    4.0820   51.7509 H       1  ZINC000190927708    0.0600
     48 H48         3.2171    0.1192   49.0581 H       1  ZINC000190927708    0.0700
     49 H49         4.1557    0.7991   50.4090 H       1  ZINC000190927708    0.0700
     50 H50         3.5087   -1.1284   51.8285 H       1  ZINC000190927708    0.0700
     51 H51         2.5700   -1.8082   50.4776 H       1  ZINC000190927708    0.0700
     52 H52         4.3405   -1.6730   50.3521 H       1  ZINC000190927708    0.0800
@<TRIPOS>BOND
     1     1     2    1
     2     1    28    1
     3     1    29    1
     4     1    30    1
     5     2     3    1
     6     2    31    1
     7     2    32    1
     8     3     4    1
     9     3    33    1
    10     3    34    1
    11     4     5   am
    12     4    19    1
    13     5     6    2
    14     5     7    1
    15     7     8    1
    16     7    35    1
    17     7    36    1
    18     8    17    1
    19     8     9    2
    20     9    10    1
    21     9    37    1
    22    10    15   ar
    23    10    11   ar
    24    11    12   ar
    25    11    38    1
    26    12    13   ar
    27    12    39    1
    28    13    14   ar
    29    13    40    1
    30    14    15   ar
    31    14    41    1
    32    15    16    1
    33    16    17   am
    34    16    42    1
    35    17    18    2
    36    19    20    1
    37    19    21    1
    38    19    23    1
    39    21    22    1
    40    21    43    1
    41    21    44    1
    42    22    45    1
    43    22    46    1
    44    22    47    1
    45    23    24    2
    46    23    25    1
    47    25    26    1
    48    26    27    1
    49    26    48    1
    50    26    49    1
    51    27    50    1
    52    27    51    1
    53    27    52    1
@<TRIPOS>SUBSTRUCTURE
     1 ZINC000190927708        1 TEMP              0 ****  ****    0 ROOT


##########                                Name:    ZINC000623695407
##########                DOCK_Rotatable_Bonds:                  10
##########                         Heavy_Atoms:                  27
##########                    Molecular_Weight:             368.479
##########                DOCK_Rotatable_Bonds:                  10
##########                       Formal_Charge:           0.0299989
##########                     HBond_Acceptors:                   6
##########                        HBond_Donors:                   2
##########                         Heavy_Atoms:                  27
##########                          Grid_Score:          -32.088421
##########                     Grid_vdw_energy:          -31.444679
##########                      Grid_es_energy:           -0.643741
##########           Internal_energy_repulsive:            9.032106

@<TRIPOS>MOLECULE
ZINC000623695407
 55 57 1 0 0
SMALL
USER_CHARGES


@<TRIPOS>ATOM
      1 C1         -7.1673    0.1405   51.8382 C.3     1  ZINC000623695407    0.0300
      2 O2         -8.0224    1.1953   52.2835 O.3     1  ZINC000623695407   -0.3200
      3 C3         -8.4889    1.1152   53.5574 C.ar    1  ZINC000623695407    0.1300
      4 C4         -9.3661    0.1012   53.9136 C.ar    1  ZINC000623695407   -0.2100
      5 C5         -9.8385    0.0217   55.2094 C.ar    1  ZINC000623695407   -0.0600
      6 C6         -9.4381    0.9519   56.1507 C.ar    1  ZINC000623695407   -0.1100
      7 C7         -9.9554    0.8631   57.5634 C.3     1  ZINC000623695407    0.0600
      8 N8         -9.1826   -0.1419   58.3055 N.3     1  ZINC000623695407   -0.4600
      9 C9         -8.3714    0.4901   59.3627 C.3     1  ZINC000623695407    0.0000
     10 C10        -8.7624   -0.6754   60.2821 C.3     1  ZINC000623695407   -0.1300
     11 C11        -9.9969   -0.7523   59.3730 C.3     1  ZINC000623695407    0.0100
     12 H12       -10.8209   -0.1209   59.7054 H       1  ZINC000623695407    0.0900
     13 C13       -10.4369   -2.1844   59.0623 C.3     1  ZINC000623695407    0.1600
     14 N14       -11.7116   -2.1580   58.3408 N.am    1  ZINC000623695407   -0.7400
     15 C15       -12.0567   -3.1892   57.5447 C.2     1  ZINC000623695407    0.7100
     16 O16       -11.3095   -4.1408   57.4241 O.2     1  ZINC000623695407   -0.5900
     17 N17       -13.2302   -3.1657   56.8822 N.am    1  ZINC000623695407   -0.7400
     18 C18       -13.6045   -4.2859   56.0154 C.3     1  ZINC000623695407    0.1700
     19 H19       -12.7063   -4.7264   55.5826 H       1  ZINC000623695407    0.0900
     20 C20       -14.3450   -5.3421   56.8382 C.3     1  ZINC000623695407   -0.1600
     21 C21       -14.5158   -3.7811   54.8948 C.3     1  ZINC000623695407   -0.0900
     22 C22       -13.6829   -3.1070   53.8352 C.ar    1  ZINC000623695407   -0.0300
     23 C23       -12.6207   -3.7694   53.2393 C.ar    1  ZINC000623695407   -0.1700
     24 C24       -11.8792   -3.1191   52.2711 C.ar    1  ZINC000623695407    0.1000
     25 N25       -12.1718   -1.8839   51.9139 N.ar    1  ZINC000623695407   -0.4900
     26 C26       -13.1746   -1.2234   52.4590 C.ar    1  ZINC000623695407    0.1000
     27 C27       -13.9641   -1.8114   53.4290 C.ar    1  ZINC000623695407   -0.1700
     28 C28        -8.5635    1.9631   55.7982 C.ar    1  ZINC000623695407   -0.0700
     29 C29        -8.0842    2.0440   54.5052 C.ar    1  ZINC000623695407   -0.1500
     30 H30        -6.8672    0.3268   50.8070 H       1  ZINC000623695407    0.1000
     31 H31        -6.2816    0.0985   52.4723 H       1  ZINC000623695407    0.0600
     32 H32        -7.7006   -0.8084   51.8957 H       1  ZINC000623695407    0.0600
     33 H33        -9.6797   -0.6252   53.1785 H       1  ZINC000623695407    0.1300
     34 H34       -10.5215   -0.7676   55.4872 H       1  ZINC000623695407    0.1200
     35 H35        -9.8519    1.8330   58.0498 H       1  ZINC000623695407    0.0600
     36 H36       -11.0064    0.5745   57.5480 H       1  ZINC000623695407    0.0700
     37 H37        -7.3066    0.5227   59.1319 H       1  ZINC000623695407    0.0900
     38 H38        -8.7616    1.4530   59.6922 H       1  ZINC000623695407    0.0700
     39 H39        -8.1020   -1.5399   60.2123 H       1  ZINC000623695407    0.1000
     40 H40        -8.9814   -0.3802   61.3083 H       1  ZINC000623695407    0.0800
     41 H41        -9.6807   -2.6713   58.4464 H       1  ZINC000623695407    0.0700
     42 H42       -10.5580   -2.7374   59.9939 H       1  ZINC000623695407    0.0700
     43 H43       -12.3072   -1.3983   58.4361 H       1  ZINC000623695407    0.3900
     44 H44       -13.8269   -2.4071   56.9793 H       1  ZINC000623695407    0.3900
     45 H45       -14.6236   -6.1755   56.1932 H       1  ZINC000623695407    0.0700
     46 H46       -13.6958   -5.7017   57.6365 H       1  ZINC000623695407    0.0700
     47 H47       -15.2432   -4.9016   57.2709 H       1  ZINC000623695407    0.0600
     48 H48       -15.0514   -4.6226   54.4552 H       1  ZINC000623695407    0.1000
     49 H49       -15.2320   -3.0677   55.3025 H       1  ZINC000623695407    0.0800
     50 H50       -12.3755   -4.7808   53.5282 H       1  ZINC000623695407    0.1300
     51 H51       -11.0501   -3.6281   51.8021 H       1  ZINC000623695407    0.1500
     52 H52       -13.3839   -0.2128   52.1408 H       1  ZINC000623695407    0.1600
     53 H53       -14.7842   -1.2656   53.8716 H       1  ZINC000623695407    0.1400
     54 H54        -8.2521    2.6884   56.5355 H       1  ZINC000623695407    0.1200
     55 H55        -7.4011    2.8340   54.2304 H       1  ZINC000623695407    0.1300
@<TRIPOS>BOND
     1     1     2    1
     2     1    30    1
     3     1    31    1
     4     1    32    1
     5     2     3    1
     6     3    29   ar
     7     3     4   ar
     8     4     5   ar
     9     4    33    1
    10     5     6   ar
    11     5    34    1
    12     6     7    1
    13     6    28   ar
    14     7     8    1
    15     7    35    1
    16     7    36    1
    17     8    11    1
    18     8     9    1
    19     9    10    1
    20     9    37    1
    21     9    38    1
    22    10    11    1
    23    10    39    1
    24    10    40    1
    25    11    12    1
    26    11    13    1
    27    13    14    1
    28    13    41    1
    29    13    42    1
    30    14    15   am
    31    14    43    1
    32    15    16    2
    33    15    17   am
    34    17    18    1
    35    17    44    1
    36    18    19    1
    37    18    20    1
    38    18    21    1
    39    20    45    1
    40    20    46    1
    41    20    47    1
    42    21    22    1
    43    21    48    1
    44    21    49    1
    45    22    27   ar
    46    22    23   ar
    47    23    24   ar
    48    23    50    1
    49    24    25   ar
    50    24    51    1
    51    25    26   ar
    52    26    27   ar
    53    26    52    1
    54    27    53    1
    55    28    29   ar
    56    28    54    1
    57    29    55    1
@<TRIPOS>SUBSTRUCTURE
     1 ZINC000623695407        1 TEMP              0 ****  ****    0 ROOT


##########                                Name:    ZINC000561219098
##########                DOCK_Rotatable_Bonds:                   4
##########                         Heavy_Atoms:                  28
##########                    Molecular_Weight:             423.273
##########                DOCK_Rotatable_Bonds:                   4
##########                       Formal_Charge:          0.00999953
##########                     HBond_Acceptors:                   9
##########                        HBond_Donors:                   1
##########                         Heavy_Atoms:                  28
##########                          Grid_Score:          -32.084862
##########                     Grid_vdw_energy:          -31.197594
##########                      Grid_es_energy:           -0.887269
##########           Internal_energy_repulsive:           10.331388

@<TRIPOS>MOLECULE
ZINC000561219098
 45 48 1 0 0
SMALL
USER_CHARGES


@<TRIPOS>ATOM
      1 C1        -13.1825    5.2896   46.3042 C.3     1  ZINC000561219098    0.0700
      2 N2        -13.1034    3.9554   46.9040 N.pl3   1  ZINC000561219098   -0.4500
      3 C3        -12.6348    2.8344   46.2839 C.2     1  ZINC000561219098   -0.0100
      4 C4        -12.7164    1.8034   47.1459 C.2     1  ZINC000561219098   -0.1700
      5 C5        -13.2597    2.3055   48.3553 C.2     1  ZINC000561219098   -0.1100
      6 C6        -13.5299    1.5275   49.5913 C.2     1  ZINC000561219098    0.1600
      7 N7        -14.0502    2.0051   50.7028 N.2     1  ZINC000561219098   -0.2700
      8 N8        -14.1482    0.9653   51.6356 N.pl3   1  ZINC000561219098   -0.4700
      9 C9        -13.6658   -0.1721   51.0500 C.2     1  ZINC000561219098    0.0300
     10 C10       -13.5802   -1.5043   51.6702 C.2     1  ZINC000561219098    0.5900
     11 O11       -14.5942   -2.1387   51.8907 O.2     1  ZINC000561219098   -0.5000
     12 N12       -12.3783   -2.0210   51.9938 N.am    1  ZINC000561219098   -0.6100
     13 C13       -12.2675   -3.3505   52.6146 C.3     1  ZINC000561219098    0.0500
     14 C14       -11.3830   -3.2301   53.8609 C.3     1  ZINC000561219098    0.0500
     15 O15       -10.1545   -2.5908   53.5061 O.3     1  ZINC000561219098   -0.3700
     16 C16       -10.3083   -1.2532   53.0255 C.3     1  ZINC000561219098    0.1200
     17 H17       -10.8189   -0.6523   53.7780 H       1  ZINC000561219098    0.0900
     18 C18        -8.9518   -0.6606   52.7435 C.ar    1  ZINC000561219098   -0.0500
     19 C19        -7.9928   -1.4105   52.0895 C.ar    1  ZINC000561219098   -0.1000
     20 C20        -6.7467   -0.8663   51.8299 C.ar    1  ZINC000561219098    0.1200
     21 F21        -5.8091   -1.5990   51.1902 F       1  ZINC000561219098   -0.1200
     22 C22        -6.4617    0.4304   52.2261 C.ar    1  ZINC000561219098   -0.0600
     23 Cl23       -4.8996    1.1144   51.9007 Cl      1  ZINC000561219098   -0.0300
     24 C24        -7.4224    1.1797   52.8805 C.ar    1  ZINC000561219098   -0.0700
     25 C25        -8.6689    0.6364   53.1345 C.ar    1  ZINC000561219098   -0.0300
     26 Cl26       -9.8747    1.5774   53.9554 Cl      1  ZINC000561219098   -0.0400
     27 C27       -11.1375   -1.2748   51.7313 C.3     1  ZINC000561219098    0.0900
     28 C28       -13.2798    0.1592   49.7693 C.2     1  ZINC000561219098   -0.1700
     29 C29       -13.4806    3.6346   48.1731 C.2     1  ZINC000561219098    0.0300
     30 H30       -12.2526    5.8272   46.4899 H       1  ZINC000561219098    0.0800
     31 H31       -13.3399    5.1962   45.2297 H       1  ZINC000561219098    0.0900
     32 H32       -14.0139    5.8383   46.7468 H       1  ZINC000561219098    0.0900
     33 H33       -12.2612    2.7827   45.2719 H       1  ZINC000561219098    0.1700
     34 H34       -12.4222    0.7825   46.9519 H       1  ZINC000561219098    0.1400
     35 H35       -14.4962    1.0391   52.5380 H       1  ZINC000561219098    0.4400
     36 H36       -13.2576   -3.7060   52.9001 H       1  ZINC000561219098    0.1000
     37 H37       -11.8156   -4.0483   51.9097 H       1  ZINC000561219098    0.0900
     38 H38       -11.8975   -2.6364   54.6165 H       1  ZINC000561219098    0.0700
     39 H39       -11.1750   -4.2240   54.2571 H       1  ZINC000561219098    0.1200
     40 H40        -8.2156   -2.4214   51.7813 H       1  ZINC000561219098    0.1600
     41 H41        -7.2008    2.1905   53.1899 H       1  ZINC000561219098    0.1600
     42 H42       -10.5695   -1.7631   50.9395 H       1  ZINC000561219098    0.0900
     43 H43       -11.3804   -0.2546   51.4339 H       1  ZINC000561219098    0.1100
     44 H44       -12.8549   -0.5120   49.0375 H       1  ZINC000561219098    0.1600
     45 H45       -13.8905    4.3155   48.9043 H       1  ZINC000561219098    0.1700
@<TRIPOS>BOND
     1     1     2    1
     2     1    30    1
     3     1    31    1
     4     1    32    1
     5     2    29    1
     6     2     3    1
     7     3     4    2
     8     3    33    1
     9     4     5    1
    10     4    34    1
    11     5     6    1
    12     5    29    2
    13     6    28    1
    14     6     7    2
    15     7     8    1
    16     8     9    1
    17     8    35    1
    18     9    10    1
    19     9    28    2
    20    10    11    2
    21    10    12   am
    22    12    27    1
    23    12    13    1
    24    13    14    1
    25    13    36    1
    26    13    37    1
    27    14    15    1
    28    14    38    1
    29    14    39    1
    30    15    16    1
    31    16    17    1
    32    16    18    1
    33    16    27    1
    34    18    25   ar
    35    18    19   ar
    36    19    20   ar
    37    19    40    1
    38    20    21    1
    39    20    22   ar
    40    22    23    1
    41    22    24   ar
    42    24    25   ar
    43    24    41    1
    44    25    26    1
    45    27    42    1
    46    27    43    1
    47    28    44    1
    48    29    45    1
@<TRIPOS>SUBSTRUCTURE
     1 ZINC000561219098        1 TEMP              0 ****  ****    0 ROOT


##########                                Name:    ZINC000066361645
##########                DOCK_Rotatable_Bonds:                   8
##########                         Heavy_Atoms:                  27
##########                    Molecular_Weight:             392.519
##########                DOCK_Rotatable_Bonds:                   8
##########                       Formal_Charge:           0.0100004
##########                     HBond_Acceptors:                   7
##########                        HBond_Donors:                   2
##########                         Heavy_Atoms:                  27
##########                          Grid_Score:          -32.082844
##########                     Grid_vdw_energy:          -27.147903
##########                      Grid_es_energy:           -4.934941
##########           Internal_energy_repulsive:            7.545228

@<TRIPOS>MOLECULE
ZINC000066361645
 55 57 1 0 0
SMALL
USER_CHARGES


@<TRIPOS>ATOM
      1 C1         -6.0846   -0.4227   51.6565 C.3     1  ZINC000066361645   -0.1400
      2 S2         -7.1823    0.9054   52.2236 S.3     1  ZINC000066361645   -0.1100
      3 C3         -8.5309    0.0263   52.9398 C.ar    1  ZINC000066361645   -0.1200
      4 C4         -9.0869   -1.0556   52.2738 C.ar    1  ZINC000066361645   -0.1100
      5 C5        -10.1482   -1.7490   52.8373 C.ar    1  ZINC000066361645    0.0500
      6 C6        -10.6545   -1.3606   54.0716 C.ar    1  ZINC000066361645    0.0700
      7 C7        -10.1009   -0.2776   54.7387 C.ar    1  ZINC000066361645   -0.1100
      8 C8         -9.0372    0.4136   54.1801 C.ar    1  ZINC000066361645    0.1800
      9 N9         -8.4782    1.5085   54.8563 N.am    1  ZINC000066361645   -0.6600
     10 C10        -9.1721    2.6587   54.9659 C.2     1  ZINC000066361645    0.5100
     11 O11       -10.2800    2.7473   54.4799 O.2     1  ZINC000066361645   -0.5000
     12 C12        -8.5716    3.8347   55.6922 C.3     1  ZINC000066361645   -0.1500
     13 C13        -9.3777    4.1158   56.9618 C.3     1  ZINC000066361645    0.1600
     14 H14       -10.4391    3.9772   56.7564 H       1  ZINC000066361645    0.1000
     15 C15        -9.1297    5.5559   57.4150 C.3     1  ZINC000066361645   -0.1600
     16 N16        -8.9604    3.1922   58.0197 N.am    1  ZINC000066361645   -0.7200
     17 C17        -9.8840    2.6156   58.8140 C.2     1  ZINC000066361645    0.5300
     18 O18       -11.0608    2.8605   58.6522 O.2     1  ZINC000066361645   -0.5400
     19 C19        -9.4545    1.6671   59.9034 C.3     1  ZINC000066361645   -0.1100
     20 C20       -10.4780    1.6988   61.0401 C.3     1  ZINC000066361645   -0.1100
     21 C21       -10.0419    0.7357   62.1461 C.3     1  ZINC000066361645   -0.1200
     22 C22        -9.9518   -0.6831   61.5805 C.3     1  ZINC000066361645   -0.1200
     23 C23        -8.9283   -0.7149   60.4437 C.3     1  ZINC000066361645   -0.1200
     24 C24        -9.3644    0.2482   59.3377 C.3     1  ZINC000066361645   -0.1000
     25 O25       -11.6914   -2.0353   54.6427 O.3     1  ZINC000066361645   -0.3000
     26 C26       -12.4630   -2.8789   53.7812 C.3     1  ZINC000066361645    0.0200
     27 C27       -11.4943   -3.7083   52.9274 C.3     1  ZINC000066361645    0.0200
     28 O28       -10.6835   -2.8065   52.1663 O.3     1  ZINC000066361645   -0.3100
     29 H29        -5.7822   -1.0326   52.5079 H       1  ZINC000066361645    0.0900
     30 H30        -6.6108   -1.0449   50.9326 H       1  ZINC000066361645    0.0900
     31 H31        -5.2010    0.0112   51.1883 H       1  ZINC000066361645    0.1100
     32 H32        -8.6931   -1.3587   51.3149 H       1  ZINC000066361645    0.1400
     33 H33       -10.4968    0.0252   55.6968 H       1  ZINC000066361645    0.1600
     34 H34        -7.5923    1.4377   55.2448 H       1  ZINC000066361645    0.4100
     35 H35        -7.5396    3.6081   55.9597 H       1  ZINC000066361645    0.1000
     36 H36        -8.5951    4.7117   55.0453 H       1  ZINC000066361645    0.1200
     37 H37        -8.0682    5.6945   57.6204 H       1  ZINC000066361645    0.0600
     38 H38        -9.4402    6.2431   56.6280 H       1  ZINC000066361645    0.0700
     39 H39        -9.7040    5.7562   58.3196 H       1  ZINC000066361645    0.0700
     40 H40        -8.0192    2.9955   58.1484 H       1  ZINC000066361645    0.4000
     41 H41        -8.4789    1.9690   60.2843 H       1  ZINC000066361645    0.1000
     42 H42       -10.5423    2.7095   61.4431 H       1  ZINC000066361645    0.0600
     43 H43       -11.4537    1.3968   60.6592 H       1  ZINC000066361645    0.0700
     44 H44        -9.0664    1.0376   62.5270 H       1  ZINC000066361645    0.0600
     45 H45       -10.7711    0.7582   62.9560 H       1  ZINC000066361645    0.0700
     46 H46        -9.6411   -1.3692   62.3685 H       1  ZINC000066361645    0.0600
     47 H47       -10.9273   -0.9851   61.1996 H       1  ZINC000066361645    0.0600
     48 H48        -7.9526   -0.4129   60.8247 H       1  ZINC000066361645    0.0600
     49 H49        -8.8640   -1.7257   60.0408 H       1  ZINC000066361645    0.0700
     50 H50       -10.3399   -0.0537   58.9568 H       1  ZINC000066361645    0.0700
     51 H51        -8.6351    0.2256   58.5279 H       1  ZINC000066361645    0.0700
     52 H52       -13.0867   -3.5432   54.3794 H       1  ZINC000066361645    0.1300
     53 H53       -13.0917   -2.2670   53.1343 H       1  ZINC000066361645    0.0800
     54 H54       -10.8611   -4.3151   53.5745 H       1  ZINC000066361645    0.0800
     55 H55       -12.0581   -4.3536   52.2537 H       1  ZINC000066361645    0.1200
@<TRIPOS>BOND
     1     1     2    1
     2     1    29    1
     3     1    30    1
     4     1    31    1
     5     2     3    1
     6     3     8   ar
     7     3     4   ar
     8     4     5   ar
     9     4    32    1
    10     5    28    1
    11     5     6   ar
    12     6     7   ar
    13     6    25    1
    14     7     8   ar
    15     7    33    1
    16     8     9    1
    17     9    10   am
    18     9    34    1
    19    10    11    2
    20    10    12    1
    21    12    13    1
    22    12    35    1
    23    12    36    1
    24    13    14    1
    25    13    15    1
    26    13    16    1
    27    15    37    1
    28    15    38    1
    29    15    39    1
    30    16    17   am
    31    16    40    1
    32    17    18    2
    33    17    19    1
    34    19    24    1
    35    19    20    1
    36    19    41    1
    37    20    21    1
    38    20    42    1
    39    20    43    1
    40    21    22    1
    41    21    44    1
    42    21    45    1
    43    22    23    1
    44    22    46    1
    45    22    47    1
    46    23    24    1
    47    23    48    1
    48    23    49    1
    49    24    50    1
    50    24    51    1
    51    25    26    1
    52    26    27    1
    53    26    52    1
    54    26    53    1
    55    27    28    1
    56    27    54    1
    57    27    55    1
@<TRIPOS>SUBSTRUCTURE
     1 ZINC000066361645        1 TEMP              0 ****  ****    0 ROOT


##########                                Name:    ZINC000002634904
##########                DOCK_Rotatable_Bonds:                   7
##########                         Heavy_Atoms:                  31
##########                    Molecular_Weight:             423.498
##########                DOCK_Rotatable_Bonds:                   7
##########                       Formal_Charge:        -7.45058e-08
##########                     HBond_Acceptors:                   7
##########                        HBond_Donors:                   1
##########                         Heavy_Atoms:                  31
##########                          Grid_Score:          -32.081841
##########                     Grid_vdw_energy:          -30.855207
##########                      Grid_es_energy:           -1.226634
##########           Internal_energy_repulsive:            6.165643

@<TRIPOS>MOLECULE
ZINC000002634904
 48 51 1 0 0
SMALL
USER_CHARGES


@<TRIPOS>ATOM
      1 N1          2.1265    4.3400   50.2759 N.1     1  ZINC000002634904   -0.4100
      2 C2          1.1201    3.8509   50.4716 C.1     1  ZINC000002634904    0.2500
      3 C3         -0.1486    3.2344   50.7182 C.ar    1  ZINC000002634904   -0.0400
      4 C4         -0.9288    2.7849   49.6492 C.ar    1  ZINC000002634904   -0.0500
      5 C5         -2.1482    2.1925   49.8901 C.ar    1  ZINC000002634904   -0.1400
      6 C6         -2.6039    2.0412   51.1957 C.ar    1  ZINC000002634904    0.1700
      7 N7         -3.8403    1.4404   51.4360 N.am    1  ZINC000002634904   -0.6700
      8 C8         -4.7790    2.0925   52.1500 C.2     1  ZINC000002634904    0.5400
      9 O9         -4.5493    3.2015   52.5838 O.2     1  ZINC000002634904   -0.5000
     10 C10        -6.1142    1.4436   52.4095 C.3     1  ZINC000002634904   -0.1700
     11 S11        -6.1792   -0.1592   51.5711 S.3     1  ZINC000002634904    0.1300
     12 C12        -7.8148   -0.6596   51.9940 C.ar    1  ZINC000002634904    0.2100
     13 N13        -8.0997   -1.9539   52.0840 N.ar    1  ZINC000002634904   -0.2900
     14 N14        -9.2801   -2.3655   52.3899 N.ar    1  ZINC000002634904   -0.1600
     15 C15       -10.2562   -1.4955   52.6265 C.ar    1  ZINC000002634904    0.0600
     16 C16       -11.6157   -1.9674   52.9793 C.ar    1  ZINC000002634904   -0.0500
     17 C17       -11.9579   -2.1816   54.3141 C.ar    1  ZINC000002634904   -0.0800
     18 C18       -13.2256   -2.6211   54.6365 C.ar    1  ZINC000002634904   -0.1200
     19 C19       -14.1559   -2.8498   53.6385 C.ar    1  ZINC000002634904   -0.1000
     20 C20       -13.8222   -2.6393   52.3126 C.ar    1  ZINC000002634904   -0.1200
     21 C21       -12.5597   -2.1938   51.9783 C.ar    1  ZINC000002634904   -0.0800
     22 C22        -9.9778   -0.1168   52.5371 C.ar    1  ZINC000002634904    0.2300
     23 C23       -11.0363    0.8878   52.7928 C.ar    1  ZINC000002634904   -0.0700
     24 C24       -11.3078    1.3025   54.0962 C.ar    1  ZINC000002634904   -0.0700
     25 C25       -12.2945    2.2388   54.3280 C.ar    1  ZINC000002634904   -0.1200
     26 C26       -13.0137    2.7661   53.2705 C.ar    1  ZINC000002634904   -0.0900
     27 C27       -12.7493    2.3584   51.9752 C.ar    1  ZINC000002634904   -0.1200
     28 C28       -11.7611    1.4269   51.7303 C.ar    1  ZINC000002634904   -0.0700
     29 N29        -8.7413    0.2625   52.2229 N.ar    1  ZINC000002634904   -0.4400
     30 C30        -1.8301    2.4870   52.2621 C.ar    1  ZINC000002634904   -0.1200
     31 C31        -0.6072    3.0754   52.0290 C.ar    1  ZINC000002634904   -0.0500
     32 H32        -0.5757    2.9024   48.6353 H       1  ZINC000002634904    0.1400
     33 H33        -2.7517    1.8453   49.0645 H       1  ZINC000002634904    0.1400
     34 H34        -4.0240    0.5534   51.0890 H       1  ZINC000002634904    0.4200
     35 H35        -6.2452    1.2982   53.4818 H       1  ZINC000002634904    0.1300
     36 H36        -6.9097    2.0847   52.0300 H       1  ZINC000002634904    0.1300
     37 H37       -11.2322   -2.0040   55.0939 H       1  ZINC000002634904    0.1300
     38 H38       -13.4918   -2.7872   55.6698 H       1  ZINC000002634904    0.1300
     39 H39       -15.1467   -3.1945   53.8956 H       1  ZINC000002634904    0.1300
     40 H40       -14.5528   -2.8196   51.5378 H       1  ZINC000002634904    0.1300
     41 H41       -12.3005   -2.0295   50.9428 H       1  ZINC000002634904    0.1200
     42 H42       -10.7471    0.8912   54.9227 H       1  ZINC000002634904    0.1300
     43 H43       -12.5058    2.5604   55.3371 H       1  ZINC000002634904    0.1300
     44 H44       -13.7850    3.4987   53.4569 H       1  ZINC000002634904    0.1300
     45 H45       -13.3144    2.7733   51.1537 H       1  ZINC000002634904    0.1300
     46 H46       -11.5556    1.1094   50.7187 H       1  ZINC000002634904    0.1300
     47 H47        -2.1870    2.3674   53.2744 H       1  ZINC000002634904    0.1500
     48 H48        -0.0067    3.4209   52.8575 H       1  ZINC000002634904    0.1400
@<TRIPOS>BOND
     1     1     2    3
     2     2     3    1
     3     3    31   ar
     4     3     4   ar
     5     4     5   ar
     6     4    32    1
     7     5     6   ar
     8     5    33    1
     9     6     7    1
    10     6    30   ar
    11     7     8   am
    12     7    34    1
    13     8     9    2
    14     8    10    1
    15    10    11    1
    16    10    35    1
    17    10    36    1
    18    11    12    1
    19    12    29   ar
    20    12    13   ar
    21    13    14   ar
    22    14    15   ar
    23    15    16    1
    24    15    22   ar
    25    16    21   ar
    26    16    17   ar
    27    17    18   ar
    28    17    37    1
    29    18    19   ar
    30    18    38    1
    31    19    20   ar
    32    19    39    1
    33    20    21   ar
    34    20    40    1
    35    21    41    1
    36    22    23    1
    37    22    29   ar
    38    23    28   ar
    39    23    24   ar
    40    24    25   ar
    41    24    42    1
    42    25    26   ar
    43    25    43    1
    44    26    27   ar
    45    26    44    1
    46    27    28   ar
    47    27    45    1
    48    28    46    1
    49    30    31   ar
    50    30    47    1
    51    31    48    1
@<TRIPOS>SUBSTRUCTURE
     1 ZINC000002634904        1 TEMP              0 ****  ****    0 ROOT


##########                                Name:    ZINC000508571532
##########                DOCK_Rotatable_Bonds:                   9
##########                         Heavy_Atoms:                  30
##########                    Molecular_Weight:             422.407
##########                DOCK_Rotatable_Bonds:                   9
##########                       Formal_Charge:           0.0100001
##########                     HBond_Acceptors:                  10
##########                        HBond_Donors:                   0
##########                         Heavy_Atoms:                  30
##########                          Grid_Score:          -32.078480
##########                     Grid_vdw_energy:          -31.992767
##########                      Grid_es_energy:           -0.085713
##########           Internal_energy_repulsive:           19.121529

@<TRIPOS>MOLECULE
ZINC000508571532
 51 53 1 0 0
SMALL
USER_CHARGES


@<TRIPOS>ATOM
      1 C1        -10.7010   -1.3867   60.6836 C.3     1  ZINC000508571532    0.0300
      2 O2        -12.0586   -1.7591   60.4386 O.3     1  ZINC000508571532   -0.3200
      3 C3        -12.2961   -2.5540   59.3612 C.ar    1  ZINC000508571532    0.0900
      4 C4        -11.2348   -3.1067   58.6599 C.ar    1  ZINC000508571532   -0.1700
      5 C5        -11.4758   -3.9142   57.5654 C.ar    1  ZINC000508571532   -0.1100
      6 C6        -12.7793   -4.1727   57.1682 C.ar    1  ZINC000508571532    0.0900
      7 O7        -13.0166   -4.9673   56.0904 O.3     1  ZINC000508571532   -0.3100
      8 C8        -14.0033   -4.5193   55.1588 C.3     1  ZINC000508571532    0.1500
      9 C9        -13.5739   -3.2015   54.5671 C.2     1  ZINC000508571532    0.1700
     10 N10       -14.1872   -2.0595   54.6987 N.2     1  ZINC000508571532   -0.2500
     11 N11       -13.5494   -1.1412   54.0648 N.2     1  ZINC000508571532   -0.3000
     12 C12       -12.4862   -1.6522   53.4903 C.2     1  ZINC000508571532    0.3500
     13 N13       -11.5568   -0.9697   52.7215 N.3     1  ZINC000508571532   -0.4600
     14 C14       -12.2195   -0.1574   51.6925 C.3     1  ZINC000508571532    0.0300
     15 C15       -10.6831   -0.1419   53.5637 C.3     1  ZINC000508571532    0.1100
     16 C16        -9.2848   -0.1545   53.0018 C.ar    1  ZINC000508571532   -0.0900
     17 C17        -8.8460   -1.2368   52.2644 C.ar    1  ZINC000508571532   -0.0600
     18 C18        -7.5629   -1.2491   51.7489 C.ar    1  ZINC000508571532   -0.1300
     19 C19        -6.7165   -0.1787   51.9695 C.ar    1  ZINC000508571532   -0.0700
     20 C20        -7.1508    0.9066   52.7062 C.ar    1  ZINC000508571532   -0.1900
     21 C21        -8.4391    0.9237   53.2199 C.ar    1  ZINC000508571532    0.1100
     22 O22        -8.8688    1.9900   53.9447 O.3     1  ZINC000508571532   -0.3100
     23 C23        -8.5184    2.0163   55.3298 C.3     1  ZINC000508571532    0.6000
     24 F24        -9.0080    3.1902   55.9126 F       1  ZINC000508571532   -0.1600
     25 F25        -9.0782    0.9076   55.9737 F       1  ZINC000508571532   -0.1300
     26 F26        -7.1260    1.9770   55.4595 F       1  ZINC000508571532   -0.1600
     27 N27       -12.4652   -2.9816   53.7975 N.pl3   1  ZINC000508571532   -0.4500
     28 C28       -11.4674   -3.9700   53.3811 C.3     1  ZINC000508571532    0.0800
     29 C29       -13.8406   -3.6212   57.8702 C.ar    1  ZINC000508571532   -0.1700
     30 C30       -13.5996   -2.8168   58.9670 C.ar    1  ZINC000508571532   -0.1100
     31 H31       -10.6520   -0.7541   61.5699 H       1  ZINC000508571532    0.1000
     32 H32       -10.1015   -2.2829   60.8432 H       1  ZINC000508571532    0.0600
     33 H33       -10.3139   -0.8388   59.8244 H       1  ZINC000508571532    0.0600
     34 H34       -10.2198   -2.9053   58.9693 H       1  ZINC000508571532    0.1400
     35 H35       -10.6494   -4.3440   57.0189 H       1  ZINC000508571532    0.1300
     36 H36       -14.1130   -5.2563   54.3633 H       1  ZINC000508571532    0.0800
     37 H37       -14.9568   -4.3938   55.6718 H       1  ZINC000508571532    0.1000
     38 H38       -12.7628    0.6591   52.1682 H       1  ZINC000508571532    0.0600
     39 H39       -11.4707    0.2510   51.0139 H       1  ZINC000508571532    0.0800
     40 H40       -12.9170   -0.7797   51.1318 H       1  ZINC000508571532    0.0700
     41 H41       -11.0585    0.8812   53.5812 H       1  ZINC000508571532    0.0700
     42 H42       -10.6708   -0.5418   54.5776 H       1  ZINC000508571532    0.0900
     43 H43        -9.5054   -2.0743   52.0906 H       1  ZINC000508571532    0.1400
     44 H44        -7.2214   -2.0967   51.1732 H       1  ZINC000508571532    0.1300
     45 H45        -5.7147   -0.1908   51.5662 H       1  ZINC000508571532    0.1400
     46 H46        -6.4890    1.7425   52.8786 H       1  ZINC000508571532    0.1400
     47 H47       -10.7157   -4.0791   54.1629 H       1  ZINC000508571532    0.0900
     48 H48       -11.9556   -4.9295   53.2101 H       1  ZINC000508571532    0.0900
     49 H49       -10.9882   -3.6370   52.4604 H       1  ZINC000508571532    0.1000
     50 H50       -14.8556   -3.8228   57.5610 H       1  ZINC000508571532    0.1400
     51 H51       -14.4261   -2.3873   59.5137 H       1  ZINC000508571532    0.1400
@<TRIPOS>BOND
     1     1     2    1
     2     1    31    1
     3     1    32    1
     4     1    33    1
     5     2     3    1
     6     3    30   ar
     7     3     4   ar
     8     4     5   ar
     9     4    34    1
    10     5     6   ar
    11     5    35    1
    12     6     7    1
    13     6    29   ar
    14     7     8    1
    15     8     9    1
    16     8    36    1
    17     8    37    1
    18     9    27    1
    19     9    10    2
    20    10    11    1
    21    11    12    2
    22    12    13    1
    23    12    27    1
    24    13    14    1
    25    13    15    1
    26    14    38    1
    27    14    39    1
    28    14    40    1
    29    15    16    1
    30    15    41    1
    31    15    42    1
    32    16    21   ar
    33    16    17   ar
    34    17    18   ar
    35    17    43    1
    36    18    19   ar
    37    18    44    1
    38    19    20   ar
    39    19    45    1
    40    20    21   ar
    41    20    46    1
    42    21    22    1
    43    22    23    1
    44    23    24    1
    45    23    25    1
    46    23    26    1
    47    27    28    1
    48    28    47    1
    49    28    48    1
    50    28    49    1
    51    29    30   ar
    52    29    50    1
    53    30    51    1
@<TRIPOS>SUBSTRUCTURE
     1 ZINC000508571532        1 TEMP              0 ****  ****    0 ROOT


##########                                Name:    ZINC001579482641
##########                DOCK_Rotatable_Bonds:                   5
##########                         Heavy_Atoms:                  26
##########                    Molecular_Weight:             355.359
##########                DOCK_Rotatable_Bonds:                   5
##########                       Formal_Charge:                0.05
##########                     HBond_Acceptors:                  11
##########                        HBond_Donors:                   1
##########                         Heavy_Atoms:                  26
##########                          Grid_Score:          -32.076237
##########                     Grid_vdw_energy:          -31.178177
##########                      Grid_es_energy:           -0.898059
##########           Internal_energy_repulsive:            9.949318

@<TRIPOS>MOLECULE
ZINC001579482641
 43 46 1 0 0
SMALL
USER_CHARGES


@<TRIPOS>ATOM
      1 C1         -6.3260    1.0179   51.9814 C.3     1  ZINC001579482641    0.0300
      2 O2         -4.8895    0.8694   51.8293 O.3     1  ZINC001579482641   -0.3300
      3 C3         -4.1438    1.9858   51.9426 C.2     1  ZINC001579482641    0.5300
      4 O4         -4.6037    2.9709   52.4847 O.2     1  ZINC001579482641   -0.4900
      5 C5         -2.7670    2.0119   51.4076 C.ar    1  ZINC001579482641    0.0900
      6 C6         -1.7048    2.3330   52.2545 C.ar    1  ZINC001579482641   -0.0800
      7 C7         -0.4177    2.3561   51.7488 C.ar    1  ZINC001579482641   -0.1200
      8 C8         -0.2267    2.0558   50.4022 C.ar    1  ZINC001579482641    0.1100
      9 N9          1.0482    2.0667   49.8530 N.3     1  ZINC001579482641   -0.4600
     10 C10         1.6992    3.3878   50.0449 C.3     1  ZINC001579482641    0.0400
     11 C11         3.2059    3.0684   49.8765 C.3     1  ZINC001579482641   -0.1100
     12 C12         3.3427    1.6826   50.5479 C.3     1  ZINC001579482641   -0.0100
     13 H13         3.6918    1.7926   51.5746 H       1  ZINC001579482641    0.0900
     14 C14         4.2914    0.8130   49.7640 C.2     1  ZINC001579482641    0.1800
     15 N15         4.4920    0.8535   48.4749 N.2     1  ZINC001579482641   -0.2600
     16 N16         5.3685   -0.0278   48.1453 N.2     1  ZINC001579482641   -0.2900
     17 C17         5.7669   -0.6706   49.2091 C.2     1  ZINC001579482641    0.1500
     18 N18         5.0985   -0.1519   50.2674 N.pl3   1  ZINC001579482641   -0.4800
     19 C19         5.2177   -0.5578   51.6700 C.3     1  ZINC001579482641    0.0700
     20 C20         1.9241    1.0838   50.5271 C.3     1  ZINC001579482641    0.0600
     21 C21        -1.3420    1.7412   49.6072 C.ar    1  ZINC001579482641    0.2300
     22 C22        -1.1542    1.4192   48.1712 C.2     1  ZINC001579482641    0.2100
     23 N23        -0.7953    2.2553   47.2170 N.2     1  ZINC001579482641   -0.2600
     24 N24        -0.7427    1.5936   46.1124 N.pl3   1  ZINC001579482641   -0.2300
     25 N25        -1.0567    0.3654   46.3359 N.2     1  ZINC001579482641   -0.0500
     26 N26        -1.3109    0.2200   47.5921 N.2     1  ZINC001579482641   -0.2000
     27 N27        -2.5553    1.7244   50.1286 N.ar    1  ZINC001579482641   -0.4000
     28 H28        -6.7033    1.7007   51.2202 H       1  ZINC001579482641    0.0700
     29 H29        -6.8058    0.0458   51.8676 H       1  ZINC001579482641    0.1100
     30 H30        -6.5470    1.4186   52.9707 H       1  ZINC001579482641    0.0700
     31 H31        -1.8863    2.5614   53.2944 H       1  ZINC001579482641    0.1600
     32 H32         0.4206    2.6018   52.3839 H       1  ZINC001579482641    0.1600
     33 H33         1.3682    4.0941   49.2834 H       1  ZINC001579482641    0.1000
     34 H34         1.4972    3.7748   51.0437 H       1  ZINC001579482641    0.0600
     35 H35         3.4730    3.0138   48.8211 H       1  ZINC001579482641    0.1000
     36 H36         3.8172    3.8090   50.3923 H       1  ZINC001579482641    0.0800
     37 H37         6.4971   -1.4658   49.2406 H       1  ZINC001579482641    0.2200
     38 H38         5.9974    0.0307   52.1535 H       1  ZINC001579482641    0.0800
     39 H39         4.2683   -0.3906   52.1786 H       1  ZINC001579482641    0.0900
     40 H40         5.4761   -1.6155   51.7215 H       1  ZINC001579482641    0.0900
     41 H41         1.5773    0.9151   51.5466 H       1  ZINC001579482641    0.0600
     42 H42         1.9252    0.1456   49.9724 H       1  ZINC001579482641    0.1000
     43 H43        -0.5042    1.9633   45.2478 H       1  ZINC001579482641    0.4800
@<TRIPOS>BOND
     1     1     2    1
     2     1    28    1
     3     1    29    1
     4     1    30    1
     5     2     3    1
     6     3     4    2
     7     3     5    1
     8     5    27   ar
     9     5     6   ar
    10     6     7   ar
    11     6    31    1
    12     7     8   ar
    13     7    32    1
    14     8     9    1
    15     8    21   ar
    16     9    20    1
    17     9    10    1
    18    10    11    1
    19    10    33    1
    20    10    34    1
    21    11    12    1
    22    11    35    1
    23    11    36    1
    24    12    13    1
    25    12    14    1
    26    12    20    1
    27    14    18    1
    28    14    15    2
    29    15    16    1
    30    16    17    2
    31    17    18    1
    32    17    37    1
    33    18    19    1
    34    19    38    1
    35    19    39    1
    36    19    40    1
    37    20    41    1
    38    20    42    1
    39    21    22    1
    40    21    27   ar
    41    22    26    1
    42    22    23    2
    43    23    24    1
    44    24    25    1
    45    24    43    1
    46    25    26    2
@<TRIPOS>SUBSTRUCTURE
     1 ZINC001579482641        1 TEMP              0 ****  ****    0 ROOT


##########                                Name:    ZINC000543020509
##########                DOCK_Rotatable_Bonds:                   5
##########                         Heavy_Atoms:                  26
##########                    Molecular_Weight:              366.81
##########                DOCK_Rotatable_Bonds:                   5
##########                       Formal_Charge:               -0.02
##########                     HBond_Acceptors:                   8
##########                        HBond_Donors:                   1
##########                         Heavy_Atoms:                  26
##########                          Grid_Score:          -32.043289
##########                     Grid_vdw_energy:          -32.767494
##########                      Grid_es_energy:            0.724207
##########           Internal_energy_repulsive:            9.710860

@<TRIPOS>MOLECULE
ZINC000543020509
 41 43 1 0 0
SMALL
USER_CHARGES


@<TRIPOS>ATOM
      1 C1         -6.8005   -1.3520   51.4015 C.3     1  ZINC000543020509    0.0800
      2 N2         -7.4487   -0.3564   52.2588 N.pl3   1  ZINC000543020509   -0.6200
      3 C3         -8.8063   -0.5914   52.7568 C.3     1  ZINC000543020509    0.0900
      4 C4         -6.7747    0.8126   52.6003 C.ar    1  ZINC000543020509    0.2500
      5 C5         -7.2614    1.6512   53.6016 C.ar    1  ZINC000543020509   -0.2200
      6 C6         -6.5657    2.8043   53.9149 C.ar    1  ZINC000543020509    0.1400
      7 N7         -5.4548    3.1186   53.2827 N.ar    1  ZINC000543020509   -0.5000
      8 C8         -4.9538    2.3496   52.3219 C.ar    1  ZINC000543020509    0.1100
      9 C9         -3.6998    2.7486   51.6417 C.2     1  ZINC000543020509    0.5900
     10 O10        -3.3035    3.8947   51.7213 O.2     1  ZINC000543020509   -0.5000
     11 N11        -2.9984    1.8407   50.9345 N.am    1  ZINC000543020509   -0.6200
     12 C12        -1.8127    2.2173   50.2932 C.2     1  ZINC000543020509    0.3200
     13 N13        -1.7251    2.9233   49.1902 N.2     1  ZINC000543020509   -0.3100
     14 N14        -0.3685    3.0835   48.8795 N.pl3   1  ZINC000543020509   -0.3300
     15 C15         0.1468    3.7750   47.7804 C.ar    1  ZINC000543020509    0.2200
     16 C16         0.8714    4.9425   47.9696 C.ar    1  ZINC000543020509   -0.1300
     17 C17         1.3806    5.6254   46.8821 C.ar    1  ZINC000543020509   -0.0500
     18 C18         1.1724    5.1516   45.5967 C.ar    1  ZINC000543020509   -0.0600
     19 Cl19        1.8185    6.0209   44.2400 Cl      1  ZINC000543020509   -0.0500
     20 C20         0.4541    3.9914   45.3903 C.ar    1  ZINC000543020509   -0.0400
     21 C21        -0.0614    3.2886   46.4811 C.ar    1  ZINC000543020509   -0.0200
     22 C22        -0.8077    2.0841   46.2741 C.1     1  ZINC000543020509    0.2500
     23 N23        -1.3997    1.1285   46.1099 N.1     1  ZINC000543020509   -0.3800
     24 C24         0.3574    2.4478   49.8361 C.2     1  ZINC000543020509    0.0700
     25 C25        -0.5103    1.9100   50.7224 C.2     1  ZINC000543020509   -0.2400
     26 C26        -5.5924    1.1711   51.9530 C.ar    1  ZINC000543020509   -0.1800
     27 H27        -7.0250   -1.1339   50.3575 H       1  ZINC000543020509    0.0600
     28 H28        -5.7220   -1.3175   51.5560 H       1  ZINC000543020509    0.0700
     29 H29        -7.1720   -2.3454   51.6533 H       1  ZINC000543020509    0.0700
     30 H30        -9.1678   -1.5511   52.3875 H       1  ZINC000543020509    0.0800
     31 H31        -8.7969   -0.6016   53.8467 H       1  ZINC000543020509    0.0600
     32 H32        -9.4644    0.2039   52.4066 H       1  ZINC000543020509    0.0600
     33 H33        -8.1721    1.4034   54.1266 H       1  ZINC000543020509    0.1400
     34 H34        -6.9395    3.4570   54.6898 H       1  ZINC000543020509    0.1700
     35 H35        -3.3152    0.9262   50.8700 H       1  ZINC000543020509    0.4300
     36 H36         1.0376    5.3182   48.9683 H       1  ZINC000543020509    0.1500
     37 H37         1.9438    6.5342   47.0347 H       1  ZINC000543020509    0.1500
     38 H38         0.2942    3.6257   44.3868 H       1  ZINC000543020509    0.1500
     39 H39         1.4347    2.3867   49.8824 H       1  ZINC000543020509    0.1900
     40 H40        -0.2490    1.3394   51.6013 H       1  ZINC000543020509    0.1800
     41 H41        -5.1835    0.5470   51.1721 H       1  ZINC000543020509    0.1500
@<TRIPOS>BOND
     1     1     2    1
     2     1    27    1
     3     1    28    1
     4     1    29    1
     5     2     3    1
     6     2     4    1
     7     3    30    1
     8     3    31    1
     9     3    32    1
    10     4    26   ar
    11     4     5   ar
    12     5     6   ar
    13     5    33    1
    14     6     7   ar
    15     6    34    1
    16     7     8   ar
    17     8     9    1
    18     8    26   ar
    19     9    10    2
    20     9    11   am
    21    11    12    1
    22    11    35    1
    23    12    25    1
    24    12    13    2
    25    13    14    1
    26    14    15    1
    27    14    24    1
    28    15    21   ar
    29    15    16   ar
    30    16    17   ar
    31    16    36    1
    32    17    18   ar
    33    17    37    1
    34    18    19    1
    35    18    20   ar
    36    20    21   ar
    37    20    38    1
    38    21    22    1
    39    22    23    3
    40    24    25    2
    41    24    39    1
    42    25    40    1
    43    26    41    1
@<TRIPOS>SUBSTRUCTURE
     1 ZINC000543020509        1 TEMP              0 ****  ****    0 ROOT


##########                                Name:    ZINC000179496896
##########                DOCK_Rotatable_Bonds:                   8
##########                         Heavy_Atoms:                  27
##########                    Molecular_Weight:             396.504
##########                DOCK_Rotatable_Bonds:                   8
##########                       Formal_Charge:          0.00999944
##########                     HBond_Acceptors:                   8
##########                        HBond_Donors:                   1
##########                         Heavy_Atoms:                  27
##########                          Grid_Score:          -32.040363
##########                     Grid_vdw_energy:          -30.855476
##########                      Grid_es_energy:           -1.184887
##########           Internal_energy_repulsive:           22.929926

@<TRIPOS>MOLECULE
ZINC000179496896
 53 55 1 0 0
SMALL
USER_CHARGES


@<TRIPOS>ATOM
      1 C1          1.4824   -0.3004   61.9172 C.3     1  ZINC000179496896   -0.1500
      2 C2          0.3260    0.3209   61.1313 C.3     1  ZINC000179496896   -0.1100
      3 C3         -0.7865    0.7299   62.0987 C.3     1  ZINC000179496896   -0.1400
      4 C4          0.8261    1.5551   60.3780 C.3     1  ZINC000179496896    0.1200
      5 N5         -0.0041    1.7722   59.1906 N.pl3   1  ZINC000179496896   -0.3300
      6 N6         -1.2098    1.1216   58.9059 N.2     1  ZINC000179496896   -0.2700
      7 C7         -1.6701    1.5637   57.7682 C.2     1  ZINC000179496896    0.0800
      8 C8         -0.7629    2.5280   57.2748 C.2     1  ZINC000179496896   -0.2500
      9 C9         -0.8894    3.2852   56.0162 C.2     1  ZINC000179496896    0.5900
     10 O10        -0.0070    4.0493   55.6749 O.2     1  ZINC000179496896   -0.5300
     11 N11        -1.9831    3.1307   55.2437 N.am    1  ZINC000179496896   -0.7100
     12 C12        -2.1095    3.8846   53.9939 C.3     1  ZINC000179496896    0.1300
     13 C13        -2.6825    2.9748   52.9054 C.3     1  ZINC000179496896    0.0700
     14 H14        -2.6280    1.9368   53.2336 H       1  ZINC000179496896    0.0900
     15 C15        -4.1421    3.3507   52.6427 C.3     1  ZINC000179496896   -0.1900
     16 N16        -1.9046    3.1392   51.6702 N.3     1  ZINC000179496896   -0.5300
     17 C17        -2.1215    4.4697   51.0843 C.3     1  ZINC000179496896    0.0600
     18 C18        -1.0190    4.7507   50.0559 C.3     1  ZINC000179496896   -0.0400
     19 C19        -0.9098    3.5470   49.1438 C.2     1  ZINC000179496896   -0.1700
     20 C20        -1.4426    2.3405   49.4220 C.2     1  ZINC000179496896   -0.1100
     21 C21        -1.2151    1.3892   48.4341 C.2     1  ZINC000179496896   -0.1200
     22 C22        -0.5165    1.8071   47.3822 C.2     1  ZINC000179496896   -0.2200
     23 S23        -0.0899    3.4995   47.5918 S.3     1  ZINC000179496896    0.1000
     24 C24        -2.2153    2.0747   50.7067 C.3     1  ZINC000179496896    0.1200
     25 C25         0.2606    2.6332   58.1951 C.2     1  ZINC000179496896    0.0700
     26 C26         1.4599    3.5402   58.0954 C.3     1  ZINC000179496896    0.3400
     27 F27         1.6441    4.2054   59.3123 F       1  ZINC000179496896   -0.1500
     28 F28         2.5970    2.7793   57.8032 F       1  ZINC000179496896   -0.2000
     29 H29         1.1260   -1.1797   62.4538 H       1  ZINC000179496896    0.0600
     30 H30         2.2749   -0.5918   61.2279 H       1  ZINC000179496896    0.0600
     31 H31         1.8701    0.4277   62.6296 H       1  ZINC000179496896    0.0600
     32 H32        -0.0617   -0.4073   60.4188 H       1  ZINC000179496896    0.0800
     33 H33        -0.3988    1.4581   62.8111 H       1  ZINC000179496896    0.0600
     34 H34        -1.6104    1.1725   61.5388 H       1  ZINC000179496896    0.0600
     35 H35        -1.1429   -0.1493   62.6354 H       1  ZINC000179496896    0.0700
     36 H36         0.7648    2.4275   61.0286 H       1  ZINC000179496896    0.1000
     37 H37         1.8614    1.4005   60.0741 H       1  ZINC000179496896    0.1000
     38 H38        -2.5841    1.2477   57.2875 H       1  ZINC000179496896    0.2000
     39 H39        -2.6864    2.5205   55.5153 H       1  ZINC000179496896    0.4100
     40 H40        -2.7769    4.7327   54.1471 H       1  ZINC000179496896    0.0700
     41 H41        -1.1281    4.2455   53.6864 H       1  ZINC000179496896    0.0700
     42 H42        -4.5503    2.7026   51.8672 H       1  ZINC000179496896    0.0600
     43 H43        -4.7193    3.2287   53.5593 H       1  ZINC000179496896    0.0700
     44 H44        -4.1966    4.3887   52.3145 H       1  ZINC000179496896    0.0600
     45 H45        -3.0940    4.4973   50.5927 H       1  ZINC000179496896    0.0400
     46 H46        -2.0875    5.2240   51.8703 H       1  ZINC000179496896    0.0900
     47 H47        -1.2773    5.6335   49.4712 H       1  ZINC000179496896    0.0800
     48 H48        -0.0704    4.9118   50.5680 H       1  ZINC000179496896    0.0900
     49 H49        -1.5815    0.3766   48.5157 H       1  ZINC000179496896    0.1400
     50 H50        -0.2520    1.1994   46.5294 H       1  ZINC000179496896    0.1600
     51 H51        -1.9189    1.1102   51.1190 H       1  ZINC000179496896    0.0900
     52 H52        -3.2849    2.0724   50.4964 H       1  ZINC000179496896    0.0500
     53 H53         1.2982    4.2708   57.3029 H       1  ZINC000179496896    0.1300
@<TRIPOS>BOND
     1     1     2    1
     2     1    29    1
     3     1    30    1
     4     1    31    1
     5     2     3    1
     6     2     4    1
     7     2    32    1
     8     3    33    1
     9     3    34    1
    10     3    35    1
    11     4     5    1
    12     4    36    1
    13     4    37    1
    14     5    25    1
    15     5     6    1
    16     6     7    2
    17     7     8    1
    18     7    38    1
    19     8     9    1
    20     8    25    2
    21     9    10    2
    22     9    11   am
    23    11    12    1
    24    11    39    1
    25    12    13    1
    26    12    40    1
    27    12    41    1
    28    13    14    1
    29    13    15    1
    30    13    16    1
    31    15    42    1
    32    15    43    1
    33    15    44    1
    34    16    24    1
    35    16    17    1
    36    17    18    1
    37    17    45    1
    38    17    46    1
    39    18    19    1
    40    18    47    1
    41    18    48    1
    42    19    23    1
    43    19    20    2
    44    20    21    1
    45    20    24    1
    46    21    22    2
    47    21    49    1
    48    22    23    1
    49    22    50    1
    50    24    51    1
    51    24    52    1
    52    25    26    1
    53    26    27    1
    54    26    28    1
    55    26    53    1
@<TRIPOS>SUBSTRUCTURE
     1 ZINC000179496896        1 TEMP              0 ****  ****    0 ROOT


##########                                Name:    ZINC000435005159
##########                DOCK_Rotatable_Bonds:                  12
##########                         Heavy_Atoms:                  30
##########                    Molecular_Weight:             401.508
##########                DOCK_Rotatable_Bonds:                  12
##########                       Formal_Charge:          -0.0399985
##########                     HBond_Acceptors:                   5
##########                        HBond_Donors:                   2
##########                         Heavy_Atoms:                  30
##########                          Grid_Score:          -32.030228
##########                     Grid_vdw_energy:          -32.787071
##########                      Grid_es_energy:            0.756843
##########           Internal_energy_repulsive:           11.547202

@<TRIPOS>MOLECULE
ZINC000435005159
 57 59 1 0 0
SMALL
USER_CHARGES


@<TRIPOS>ATOM
      1 O1        -10.4530   -1.3913   55.9504 O.2     1  ZINC000435005159   -0.5300
      2 C2        -10.5887   -0.2237   55.6516 C.2     1  ZINC000435005159    0.5200
      3 C3        -10.9591    0.7861   56.7072 C.3     1  ZINC000435005159   -0.1400
      4 C4        -10.4823    0.2925   58.0747 C.3     1  ZINC000435005159   -0.1200
      5 C5        -10.5480    1.4414   59.0829 C.3     1  ZINC000435005159    0.1200
      6 N6        -10.0356    0.9851   60.3773 N.am    1  ZINC000435005159   -0.7200
      7 C7         -9.3914    1.8470   61.1888 C.2     1  ZINC000435005159    0.5600
      8 O8         -9.2344    3.0027   60.8462 O.2     1  ZINC000435005159   -0.5300
      9 C9         -8.8758    1.3870   62.4958 C.ar    1  ZINC000435005159   -0.1900
     10 C10        -8.2341    2.2800   63.3621 C.ar    1  ZINC000435005159   -0.0200
     11 C11        -7.7701    1.7990   64.5741 C.ar    1  ZINC000435005159   -0.1800
     12 C12        -7.9534    0.4645   64.8877 C.ar    1  ZINC000435005159    0.1200
     13 N13        -8.5618   -0.3546   64.0509 N.ar    1  ZINC000435005159   -0.4900
     14 C14        -9.0257    0.0564   62.8893 C.ar    1  ZINC000435005159    0.1400
     15 N15       -10.4030    0.1717   54.3766 N.am    1  ZINC000435005159   -0.7300
     16 C16       -10.0430   -0.8100   53.3505 C.3     1  ZINC000435005159    0.1900
     17 H17        -9.8605   -1.7766   53.8202 H       1  ZINC000435005159    0.1000
     18 C18       -11.1888   -0.9400   52.3448 C.3     1  ZINC000435005159   -0.1200
     19 C19       -11.4288   -2.4186   52.0336 C.3     1  ZINC000435005159   -0.0800
     20 C20       -12.3942   -2.9932   53.0381 C.ar    1  ZINC000435005159   -0.0800
     21 C21       -13.7363   -2.6688   52.9709 C.ar    1  ZINC000435005159   -0.1200
     22 C22       -14.6218   -3.1959   53.8922 C.ar    1  ZINC000435005159   -0.1200
     23 C23       -14.1653   -4.0478   54.8806 C.ar    1  ZINC000435005159   -0.1200
     24 C24       -12.8234   -4.3729   54.9472 C.ar    1  ZINC000435005159   -0.1200
     25 C25       -11.9386   -3.8492   54.0232 C.ar    1  ZINC000435005159   -0.1200
     26 C26        -8.7965   -0.3555   52.6357 C.ar    1  ZINC000435005159   -0.1000
     27 C27        -7.8496   -1.2821   52.2411 C.ar    1  ZINC000435005159   -0.1100
     28 C28        -6.7062   -0.8653   51.5854 C.ar    1  ZINC000435005159   -0.1200
     29 C29        -6.5099    0.4779   51.3240 C.ar    1  ZINC000435005159   -0.1200
     30 C30        -7.4574    1.4042   51.7179 C.ar    1  ZINC000435005159   -0.1200
     31 C31        -8.6028    0.9870   52.3697 C.ar    1  ZINC000435005159   -0.1000
     32 H32       -10.4841    1.7405   56.4797 H       1  ZINC000435005159    0.1000
     33 H33       -12.0414    0.9138   56.7242 H       1  ZINC000435005159    0.1000
     34 H34       -11.1234   -0.5227   58.4104 H       1  ZINC000435005159    0.0800
     35 H35        -9.4549   -0.0626   57.9949 H       1  ZINC000435005159    0.0800
     36 H36        -9.9420    2.2738   58.7252 H       1  ZINC000435005159    0.0700
     37 H37       -11.5821    1.7669   59.1960 H       1  ZINC000435005159    0.0700
     38 H38       -10.1598    0.0626   60.6503 H       1  ZINC000435005159    0.4000
     39 H39        -8.1042    3.3175   63.0915 H       1  ZINC000435005159    0.1500
     40 H40        -7.2699    2.4588   65.2674 H       1  ZINC000435005159    0.1500
     41 H41        -7.5924    0.0866   65.8329 H       1  ZINC000435005159    0.1600
     42 H42        -9.5183   -0.6442   62.2314 H       1  ZINC000435005159    0.1600
     43 H43       -10.5077    1.1061   54.1384 H       1  ZINC000435005159    0.4000
     44 H44       -12.0947   -0.5061   52.7681 H       1  ZINC000435005159    0.0700
     45 H45       -10.9282   -0.4131   51.4269 H       1  ZINC000435005159    0.0800
     46 H46       -11.8465   -2.5159   51.0316 H       1  ZINC000435005159    0.0700
     47 H47       -10.4839   -2.9594   52.0874 H       1  ZINC000435005159    0.0700
     48 H48       -14.0929   -2.0031   52.1987 H       1  ZINC000435005159    0.1200
     49 H49       -15.6702   -2.9418   53.8402 H       1  ZINC000435005159    0.1200
     50 H50       -14.8571   -4.4590   55.6008 H       1  ZINC000435005159    0.1200
     51 H51       -12.4667   -5.0382   55.7196 H       1  ZINC000435005159    0.1200
     52 H52       -10.8902   -4.1033   54.0754 H       1  ZINC000435005159    0.1200
     53 H53        -8.0028   -2.3315   52.4452 H       1  ZINC000435005159    0.1200
     54 H54        -5.9659   -1.5890   51.2777 H       1  ZINC000435005159    0.1200
     55 H55        -5.6164    0.8035   50.8124 H       1  ZINC000435005159    0.1200
     56 H56        -7.3040    2.4537   51.5140 H       1  ZINC000435005159    0.1200
     57 H57        -9.3430    1.7108   52.6774 H       1  ZINC000435005159    0.1200
@<TRIPOS>BOND
     1     1     2    2
     2     2     3    1
     3     2    15   am
     4     3     4    1
     5     3    32    1
     6     3    33    1
     7     4     5    1
     8     4    34    1
     9     4    35    1
    10     5     6    1
    11     5    36    1
    12     5    37    1
    13     6     7   am
    14     6    38    1
    15     7     8    2
    16     7     9    1
    17     9    14   ar
    18     9    10   ar
    19    10    11   ar
    20    10    39    1
    21    11    12   ar
    22    11    40    1
    23    12    13   ar
    24    12    41    1
    25    13    14   ar
    26    14    42    1
    27    15    16    1
    28    15    43    1
    29    16    17    1
    30    16    18    1
    31    16    26    1
    32    18    19    1
    33    18    44    1
    34    18    45    1
    35    19    20    1
    36    19    46    1
    37    19    47    1
    38    20    25   ar
    39    20    21   ar
    40    21    22   ar
    41    21    48    1
    42    22    23   ar
    43    22    49    1
    44    23    24   ar
    45    23    50    1
    46    24    25   ar
    47    24    51    1
    48    25    52    1
    49    26    31   ar
    50    26    27   ar
    51    27    28   ar
    52    27    53    1
    53    28    29   ar
    54    28    54    1
    55    29    30   ar
    56    29    55    1
    57    30    31   ar
    58    30    56    1
    59    31    57    1
@<TRIPOS>SUBSTRUCTURE
     1 ZINC000435005159        1 TEMP              0 ****  ****    0 ROOT


##########                                Name:    ZINC000770850676
##########                DOCK_Rotatable_Bonds:                  13
##########                         Heavy_Atoms:                  30
##########                    Molecular_Weight:             412.486
##########                DOCK_Rotatable_Bonds:                  13
##########                       Formal_Charge:          -0.0299994
##########                     HBond_Acceptors:                   7
##########                        HBond_Donors:                   3
##########                         Heavy_Atoms:                  30
##########                          Grid_Score:          -32.028572
##########                     Grid_vdw_energy:          -31.506783
##########                      Grid_es_energy:           -0.521791
##########           Internal_energy_repulsive:           16.651550

@<TRIPOS>MOLECULE
ZINC000770850676
 58 60 1 0 0
SMALL
USER_CHARGES


@<TRIPOS>ATOM
      1 O1        -14.9966   -4.6505   54.6912 O.2     1  ZINC000770850676   -0.5300
      2 C2        -14.0494   -3.9229   54.9014 C.2     1  ZINC000770850676    0.5100
      3 N3        -14.1398   -2.6049   54.6345 N.am    1  ZINC000770850676   -0.7000
      4 C4        -15.3801   -2.0523   54.0846 C.3     1  ZINC000770850676    0.1600
      5 H5        -16.2289   -2.4214   54.6603 H       1  ZINC000770850676    0.1000
      6 C6        -15.5278   -2.4844   52.6244 C.3     1  ZINC000770850676    0.0600
      7 O7        -14.3735   -2.0760   51.8877 O.3     1  ZINC000770850676   -0.5700
      8 C8        -15.3367   -0.5249   54.1626 C.3     1  ZINC000770850676   -0.1500
      9 C9        -16.2143   -0.0482   55.3216 C.3     1  ZINC000770850676    0.1500
     10 H10       -16.2486    1.0412   55.3271 H       1  ZINC000770850676    0.1100
     11 O11       -17.5367   -0.5656   55.1620 O.3     1  ZINC000770850676   -0.5400
     12 C12       -15.6367   -0.5392   56.6240 C.ar    1  ZINC000770850676   -0.1200
     13 C13       -16.1676   -1.6586   57.2373 C.ar    1  ZINC000770850676   -0.1100
     14 C14       -15.6378   -2.1090   58.4319 C.ar    1  ZINC000770850676   -0.1200
     15 C15       -14.5767   -1.4403   59.0132 C.ar    1  ZINC000770850676   -0.1200
     16 C16       -14.0452   -0.3214   58.3995 C.ar    1  ZINC000770850676   -0.1200
     17 C17       -14.5722    0.1264   57.2027 C.ar    1  ZINC000770850676   -0.1100
     18 C18       -12.7734   -4.4913   55.4671 C.3     1  ZINC000770850676    0.1400
     19 H19       -12.6923   -5.5474   55.2101 H       1  ZINC000770850676    0.1000
     20 C20       -12.7580   -4.3217   57.0009 C.3     1  ZINC000770850676   -0.1200
     21 C21       -11.2762   -3.9693   57.2967 C.3     1  ZINC000770850676   -0.1300
     22 C22       -10.9058   -3.1169   56.0574 C.3     1  ZINC000770850676    0.1000
     23 N23       -11.6181   -3.7562   54.9318 N.am    1  ZINC000770850676   -0.5900
     24 C24       -11.2671   -3.6760   53.6330 C.2     1  ZINC000770850676    0.6700
     25 O25       -11.9304   -4.2442   52.7882 O.2     1  ZINC000770850676   -0.5600
     26 O26       -10.1815   -2.9663   53.2717 O.3     1  ZINC000770850676   -0.3600
     27 C27       -10.3986   -1.8316   52.3921 C.3     1  ZINC000770850676    0.1300
     28 C28        -9.1916   -0.9300   52.4281 C.ar    1  ZINC000770850676   -0.1000
     29 C29        -9.3258    0.3892   52.8186 C.ar    1  ZINC000770850676   -0.0900
     30 C30        -8.2186    1.2162   52.8517 C.ar    1  ZINC000770850676   -0.1200
     31 C31        -6.9772    0.7239   52.4946 C.ar    1  ZINC000770850676   -0.1100
     32 C32        -6.8429   -0.5955   52.1049 C.ar    1  ZINC000770850676   -0.1200
     33 C33        -7.9493   -1.4237   52.0760 C.ar    1  ZINC000770850676   -0.0900
     34 H34       -13.3836   -2.0222   54.8062 H       1  ZINC000770850676    0.4000
     35 H35       -15.6257   -3.5689   52.5745 H       1  ZINC000770850676    0.0500
     36 H36       -16.4156   -2.0194   52.1957 H       1  ZINC000770850676    0.0500
     37 H37       -14.1551   -1.1391   51.9862 H       1  ZINC000770850676    0.3800
     38 H38       -14.3096   -0.1986   54.3265 H       1  ZINC000770850676    0.0800
     39 H39       -15.7073   -0.1027   53.2286 H       1  ZINC000770850676    0.0900
     40 H40       -17.5897   -1.5302   55.2060 H       1  ZINC000770850676    0.3700
     41 H41       -16.9966   -2.1811   56.7831 H       1  ZINC000770850676    0.1200
     42 H42       -16.0530   -2.9831   58.9114 H       1  ZINC000770850676    0.1200
     43 H43       -14.1632   -1.7917   59.9469 H       1  ZINC000770850676    0.1200
     44 H44       -13.2165    0.2012   58.8538 H       1  ZINC000770850676    0.1200
     45 H45       -14.1570    1.0006   56.7232 H       1  ZINC000770850676    0.1200
     46 H46       -13.4161   -3.5079   57.3055 H       1  ZINC000770850676    0.0800
     47 H47       -13.0392   -5.2519   57.4947 H       1  ZINC000770850676    0.1000
     48 H48       -11.1888   -3.3852   58.2128 H       1  ZINC000770850676    0.0900
     49 H49       -10.6635   -4.8694   57.3491 H       1  ZINC000770850676    0.0800
     50 H50       -11.2454   -2.0895   56.1883 H       1  ZINC000770850676    0.0700
     51 H51        -9.8295   -3.1428   55.8870 H       1  ZINC000770850676    0.0900
     52 H52       -10.5568   -2.1865   51.3736 H       1  ZINC000770850676    0.0800
     53 H53       -11.2764   -1.2772   52.7241 H       1  ZINC000770850676    0.0800
     54 H54       -10.2956    0.7738   53.0977 H       1  ZINC000770850676    0.1200
     55 H55        -8.3235    2.2471   53.1562 H       1  ZINC000770850676    0.1300
     56 H56        -6.1123    1.3704   52.5197 H       1  ZINC000770850676    0.1300
     57 H57        -5.8731   -0.9800   51.8255 H       1  ZINC000770850676    0.1300
     58 H58        -7.8444   -2.4545   51.7715 H       1  ZINC000770850676    0.1200
@<TRIPOS>BOND
     1     1     2    2
     2     2     3   am
     3     2    18    1
     4     3     4    1
     5     3    34    1
     6     4     5    1
     7     4     6    1
     8     4     8    1
     9     6     7    1
    10     6    35    1
    11     6    36    1
    12     7    37    1
    13     8     9    1
    14     8    38    1
    15     8    39    1
    16     9    10    1
    17     9    11    1
    18     9    12    1
    19    11    40    1
    20    12    17   ar
    21    12    13   ar
    22    13    14   ar
    23    13    41    1
    24    14    15   ar
    25    14    42    1
    26    15    16   ar
    27    15    43    1
    28    16    17   ar
    29    16    44    1
    30    17    45    1
    31    18    19    1
    32    18    23    1
    33    18    20    1
    34    20    21    1
    35    20    46    1
    36    20    47    1
    37    21    22    1
    38    21    48    1
    39    21    49    1
    40    22    23    1
    41    22    50    1
    42    22    51    1
    43    23    24   am
    44    24    25    2
    45    24    26    1
    46    26    27    1
    47    27    28    1
    48    27    52    1
    49    27    53    1
    50    28    33   ar
    51    28    29   ar
    52    29    30   ar
    53    29    54    1
    54    30    31   ar
    55    30    55    1
    56    31    32   ar
    57    31    56    1
    58    32    33   ar
    59    32    57    1
    60    33    58    1
@<TRIPOS>SUBSTRUCTURE
     1 ZINC000770850676        1 TEMP              0 ****  ****    0 ROOT


##########                                Name:    ZINC000981700465
##########                DOCK_Rotatable_Bonds:                   9
##########                         Heavy_Atoms:                  26
##########                    Molecular_Weight:             356.428
##########                DOCK_Rotatable_Bonds:                   9
##########                       Formal_Charge:               -0.01
##########                     HBond_Acceptors:                   8
##########                        HBond_Donors:                   3
##########                         Heavy_Atoms:                  26
##########                          Grid_Score:          -31.952486
##########                     Grid_vdw_energy:          -26.291773
##########                      Grid_es_energy:           -5.660714
##########           Internal_energy_repulsive:           10.104760

@<TRIPOS>MOLECULE
ZINC000981700465
 50 52 1 0 0
SMALL
USER_CHARGES


@<TRIPOS>ATOM
      1 C1          3.9492   -1.5705   63.5884 C.3     1  ZINC000981700465   -0.1500
      2 C2          3.4105   -0.9340   62.3055 C.3     1  ZINC000981700465   -0.1100
      3 C3          1.9971   -0.4035   62.5541 C.3     1  ZINC000981700465   -0.0500
      4 C4          0.9906   -1.4597   62.1769 C.2     1  ZINC000981700465    0.1400
      5 N5          1.1102   -2.7419   62.3851 N.2     1  ZINC000981700465   -0.2900
      6 N6         -0.0293   -3.3890   61.8946 N.pl3   1  ZINC000981700465   -0.4600
      7 C7         -0.8546   -2.4648   61.3777 C.2     1  ZINC000981700465    0.1000
      8 C8         -0.2511   -1.2341   61.5415 C.2     1  ZINC000981700465   -0.2900
      9 C9         -0.7955    0.0704   61.1225 C.2     1  ZINC000981700465    0.5900
     10 O10        -1.1175    0.8919   61.9590 O.2     1  ZINC000981700465   -0.5300
     11 N11        -0.9361    0.3522   59.8120 N.am    1  ZINC000981700465   -0.7300
     12 C12        -1.4787    1.6478   59.3956 C.3     1  ZINC000981700465    0.1300
     13 C13        -0.3311    2.5741   58.9882 C.3     1  ZINC000981700465   -0.1100
     14 H14         0.0639    3.0965   59.8595 H       1  ZINC000981700465    0.0900
     15 C15         0.7900    1.7707   58.2834 C.3     1  ZINC000981700465   -0.1200
     16 C16         1.5079    2.8534   57.4401 C.3     1  ZINC000981700465   -0.1300
     17 C17         0.3656    3.7590   56.9353 C.3     1  ZINC000981700465    0.1400
     18 H18         0.6905    4.7994   56.9253 H       1  ZINC000981700465    0.1000
     19 N19        -0.0430    3.3482   55.5897 N.am    1  ZINC000981700465   -0.7100
     20 C20         0.5563    3.8872   54.5095 C.2     1  ZINC000981700465    0.5600
     21 O21         1.4346    4.7149   54.6517 O.2     1  ZINC000981700465   -0.5200
     22 C22         0.1444    3.4706   53.1490 C.ar    1  ZINC000981700465   -0.1400
     23 C23        -1.2031    3.4766   52.7663 C.ar    1  ZINC000981700465   -0.0600
     24 C24        -1.5108    3.0740   51.4768 C.ar    1  ZINC000981700465    0.0400
     25 N25        -0.5484    2.7018   50.6555 N.ar    1  ZINC000981700465   -0.2200
     26 N26         0.6873    2.6939   50.9997 N.ar    1  ZINC000981700465   -0.2400
     27 C27         1.0873    3.0634   52.2010 C.ar    1  ZINC000981700465    0.0700
     28 C28        -0.8047    3.5837   57.9221 C.3     1  ZINC000981700465   -0.1200
     29 H29         3.2995   -2.3933   63.8863 H       1  ZINC000981700465    0.0600
     30 H30         4.9561   -1.9483   63.4113 H       1  ZINC000981700465    0.0600
     31 H31         3.9759   -0.8231   64.3814 H       1  ZINC000981700465    0.0500
     32 H32         4.0602   -0.1110   62.0076 H       1  ZINC000981700465    0.0600
     33 H33         3.3838   -1.6813   61.5126 H       1  ZINC000981700465    0.0600
     34 H34         1.8832   -0.1531   63.6088 H       1  ZINC000981700465    0.1000
     35 H35         1.8320    0.4881   61.9491 H       1  ZINC000981700465    0.0800
     36 H36        -0.1951   -4.3443   61.9231 H       1  ZINC000981700465    0.4500
     37 H37        -1.8160   -2.6497   60.9217 H       1  ZINC000981700465    0.1800
     38 H38        -0.6781   -0.3026   59.1446 H       1  ZINC000981700465    0.4000
     39 H39        -2.1492    1.5055   58.5481 H       1  ZINC000981700465    0.0700
     40 H40        -2.0294    2.0941   60.2235 H       1  ZINC000981700465    0.0700
     41 H41         1.4714    1.3356   59.0145 H       1  ZINC000981700465    0.0700
     42 H42         0.3665    0.9986   57.6411 H       1  ZINC000981700465    0.0700
     43 H43         2.2005    3.4227   58.0600 H       1  ZINC000981700465    0.0800
     44 H44         2.0326    2.3973   56.6005 H       1  ZINC000981700465    0.0700
     45 H45        -0.7449    2.6884   55.4762 H       1  ZINC000981700465    0.4000
     46 H46        -1.9768    3.7847   53.4540 H       1  ZINC000981700465    0.1700
     47 H47        -2.5384    3.0647   51.1444 H       1  ZINC000981700465    0.1800
     48 H48         2.1371    3.0436   52.4536 H       1  ZINC000981700465    0.1700
     49 H49        -1.6775    3.1913   57.4004 H       1  ZINC000981700465    0.0800
     50 H50        -1.0460    4.5388   58.3886 H       1  ZINC000981700465    0.0800
@<TRIPOS>BOND
     1     1     2    1
     2     1    29    1
     3     1    30    1
     4     1    31    1
     5     2     3    1
     6     2    32    1
     7     2    33    1
     8     3     4    1
     9     3    34    1
    10     3    35    1
    11     4     8    1
    12     4     5    2
    13     5     6    1
    14     6     7    1
    15     6    36    1
    16     7     8    2
    17     7    37    1
    18     8     9    1
    19     9    10    2
    20     9    11   am
    21    11    12    1
    22    11    38    1
    23    12    13    1
    24    12    39    1
    25    12    40    1
    26    13    14    1
    27    13    28    1
    28    13    15    1
    29    15    16    1
    30    15    41    1
    31    15    42    1
    32    16    17    1
    33    16    43    1
    34    16    44    1
    35    17    18    1
    36    17    19    1
    37    17    28    1
    38    19    20   am
    39    19    45    1
    40    20    21    2
    41    20    22    1
    42    22    27   ar
    43    22    23   ar
    44    23    24   ar
    45    23    46    1
    46    24    25   ar
    47    24    47    1
    48    25    26   ar
    49    26    27   ar
    50    27    48    1
    51    28    49    1
    52    28    50    1
@<TRIPOS>SUBSTRUCTURE
     1 ZINC000981700465        1 TEMP              0 ****  ****    0 ROOT


##########                                Name:    ZINC001342153661
##########                DOCK_Rotatable_Bonds:                   8
##########                         Heavy_Atoms:                  29
##########                    Molecular_Weight:             395.548
##########                DOCK_Rotatable_Bonds:                   8
##########                       Formal_Charge:          -0.0400005
##########                     HBond_Acceptors:                   6
##########                        HBond_Donors:                   1
##########                         Heavy_Atoms:                  29
##########                          Grid_Score:          -31.951206
##########                     Grid_vdw_energy:          -31.320957
##########                      Grid_es_energy:           -0.630248
##########           Internal_energy_repulsive:           17.608093

@<TRIPOS>MOLECULE
ZINC001342153661
 62 65 1 0 0
SMALL
USER_CHARGES


@<TRIPOS>ATOM
      1 C1         -7.6414   -1.6286   52.1187 C.2     1  ZINC001342153661   -0.1400
      2 C2         -7.3681   -0.3540   52.2489 C.2     1  ZINC001342153661   -0.1600
      3 C3         -6.3603    0.2974   51.3373 C.3     1  ZINC001342153661   -0.1200
      4 C4         -8.0613    0.4606   53.3104 C.3     1  ZINC001342153661    0.1500
      5 N5         -9.3140    0.9978   52.7735 N.pl3   1  ZINC001342153661   -0.4700
      6 C6         -9.5348    2.2618   52.3008 C.2     1  ZINC001342153661    0.1800
      7 C7         -8.5254    3.3787   52.2324 C.3     1  ZINC001342153661   -0.0600
      8 C8         -9.2541    4.7169   52.0939 C.3     1  ZINC001342153661    0.1600
      9 H9        -10.3193    4.5709   52.2732 H       1  ZINC001342153661    0.1000
     10 O10        -8.7332    5.6439   53.0487 O.3     1  ZINC001342153661   -0.5400
     11 C11        -9.0484    5.2594   50.7031 C.ar    1  ZINC001342153661   -0.1700
     12 C12        -9.4108    4.5080   49.5960 C.ar    1  ZINC001342153661   -0.0600
     13 C13        -9.2035    5.0477   48.3355 C.ar    1  ZINC001342153661   -0.1700
     14 C14        -8.6466    6.3075   48.2257 C.ar    1  ZINC001342153661    0.1000
     15 N15        -8.3139    6.9942   49.3015 N.ar    1  ZINC001342153661   -0.4800
     16 C16        -8.5014    6.5148   50.5154 C.ar    1  ZINC001342153661    0.1100
     17 N17       -10.7794    2.3212   51.9199 N.2     1  ZINC001342153661   -0.2700
     18 N18       -11.3555    1.1896   52.1181 N.2     1  ZINC001342153661   -0.3200
     19 C19       -10.5010    0.3389   52.6358 C.2     1  ZINC001342153661    0.3600
     20 N20       -10.7576   -0.9774   52.9848 N.3     1  ZINC001342153661   -0.4500
     21 C21       -11.1416   -1.7685   51.8087 C.3     1  ZINC001342153661    0.0500
     22 C22       -11.2752   -3.2409   52.2040 C.3     1  ZINC001342153661   -0.1200
     23 C23       -12.3348   -3.3757   53.3011 C.3     1  ZINC001342153661   -0.1200
     24 C24       -11.9355   -2.5044   54.4953 C.3     1  ZINC001342153661   -0.0800
     25 H25       -10.9886   -2.8581   54.9032 H       1  ZINC001342153661    0.0800
     26 C26       -13.0186   -2.5872   55.5727 C.3     1  ZINC001342153661   -0.0800
     27 C27       -13.3021   -4.0640   55.9439 C.3     1  ZINC001342153661   -0.1200
     28 C28       -13.8965   -3.9500   57.3698 C.3     1  ZINC001342153661   -0.1300
     29 C29       -13.0784   -2.8218   58.0315 C.3     1  ZINC001342153661   -0.1300
     30 C30       -12.5202   -1.9553   56.8888 C.3     1  ZINC001342153661   -0.1200
     31 C31       -11.7828   -1.0534   54.0335 C.3     1  ZINC001342153661    0.0800
     32 H32        -7.1446   -2.2124   51.3580 H       1  ZINC001342153661    0.1000
     33 H33        -8.3603   -2.0965   52.7749 H       1  ZINC001342153661    0.1100
     34 H34        -6.8518    0.6084   50.4155 H       1  ZINC001342153661    0.0700
     35 H35        -5.9322    1.1689   51.8327 H       1  ZINC001342153661    0.0600
     36 H36        -5.5678   -0.4138   51.1043 H       1  ZINC001342153661    0.0700
     37 H37        -8.2768   -0.1724   54.1712 H       1  ZINC001342153661    0.1000
     38 H38        -7.4152    1.2831   53.6170 H       1  ZINC001342153661    0.1000
     39 H39        -7.9267    3.3836   53.1433 H       1  ZINC001342153661    0.1100
     40 H40        -7.8748    3.2284   51.3709 H       1  ZINC001342153661    0.1000
     41 H41        -8.8171    5.3519   53.9667 H       1  ZINC001342153661    0.3800
     42 H42        -9.8438    3.5254   49.7123 H       1  ZINC001342153661    0.1300
     43 H43        -9.4736    4.4902   47.4508 H       1  ZINC001342153661    0.1400
     44 H44        -8.4817    6.7347   47.2476 H       1  ZINC001342153661    0.1600
     45 H45        -8.2162    7.1065   51.3728 H       1  ZINC001342153661    0.1500
     46 H46       -12.0956   -1.4078   51.4240 H       1  ZINC001342153661    0.0500
     47 H47       -10.3776   -1.6672   51.0378 H       1  ZINC001342153661    0.0700
     48 H48       -11.5753   -3.8254   51.3343 H       1  ZINC001342153661    0.0800
     49 H49       -10.3178   -3.6061   52.5759 H       1  ZINC001342153661    0.0700
     50 H50       -13.3005   -3.0469   52.9171 H       1  ZINC001342153661    0.0600
     51 H51       -12.4024   -4.4169   53.6162 H       1  ZINC001342153661    0.0700
     52 H52       -13.9303   -2.0949   55.2345 H       1  ZINC001342153661    0.0800
     53 H53       -14.0265   -4.5025   55.2575 H       1  ZINC001342153661    0.0700
     54 H54       -12.3791   -4.6436   55.9554 H       1  ZINC001342153661    0.0700
     55 H55       -14.9513   -3.6793   57.3229 H       1  ZINC001342153661    0.0600
     56 H56       -13.7655   -4.8855   57.9136 H       1  ZINC001342153661    0.0600
     57 H57       -13.7220   -2.2218   58.6747 H       1  ZINC001342153661    0.0600
     58 H58       -12.2596   -3.2459   58.6127 H       1  ZINC001342153661    0.0600
     59 H59       -11.4305   -1.9589   56.9156 H       1  ZINC001342153661    0.0600
     60 H60       -12.8929   -0.9349   56.9778 H       1  ZINC001342153661    0.0600
     61 H61       -11.4846   -0.4329   54.8785 H       1  ZINC001342153661    0.0900
     62 H62       -12.7337   -0.6960   53.6384 H       1  ZINC001342153661    0.0500
@<TRIPOS>BOND
     1     1     2    2
     2     1    32    1
     3     1    33    1
     4     2     3    1
     5     2     4    1
     6     3    34    1
     7     3    35    1
     8     3    36    1
     9     4     5    1
    10     4    37    1
    11     4    38    1
    12     5    19    1
    13     5     6    1
    14     6     7    1
    15     6    17    2
    16     7     8    1
    17     7    39    1
    18     7    40    1
    19     8     9    1
    20     8    10    1
    21     8    11    1
    22    10    41    1
    23    11    16   ar
    24    11    12   ar
    25    12    13   ar
    26    12    42    1
    27    13    14   ar
    28    13    43    1
    29    14    15   ar
    30    14    44    1
    31    15    16   ar
    32    16    45    1
    33    17    18    1
    34    18    19    2
    35    19    20    1
    36    20    31    1
    37    20    21    1
    38    21    22    1
    39    21    46    1
    40    21    47    1
    41    22    23    1
    42    22    48    1
    43    22    49    1
    44    23    24    1
    45    23    50    1
    46    23    51    1
    47    24    25    1
    48    24    26    1
    49    24    31    1
    50    26    30    1
    51    26    27    1
    52    26    52    1
    53    27    28    1
    54    27    53    1
    55    27    54    1
    56    28    29    1
    57    28    55    1
    58    28    56    1
    59    29    30    1
    60    29    57    1
    61    29    58    1
    62    30    59    1
    63    30    60    1
    64    31    61    1
    65    31    62    1
@<TRIPOS>SUBSTRUCTURE
     1 ZINC001342153661        1 TEMP              0 ****  ****    0 ROOT


##########                                Name:    ZINC000011972961
##########                DOCK_Rotatable_Bonds:                   6
##########                         Heavy_Atoms:                  28
##########                    Molecular_Weight:             397.501
##########                DOCK_Rotatable_Bonds:                   6
##########                       Formal_Charge:                   0
##########                     HBond_Acceptors:                   8
##########                        HBond_Donors:                   1
##########                         Heavy_Atoms:                  28
##########                          Grid_Score:          -31.948978
##########                     Grid_vdw_energy:          -31.948978
##########                      Grid_es_energy:            0.000000
##########           Internal_energy_repulsive:           21.413588

@<TRIPOS>MOLECULE
ZINC000011972961
 51 54 1 0 0
SMALL
USER_CHARGES


@<TRIPOS>ATOM
      1 C1        -10.8539    1.3381   52.7394 C.3        g      0.0000
      2 C2         -9.3782    1.4558   52.4578 C.2        g      0.0000
      3 C3         -8.7523    2.6386   52.4092 C.2        g      0.0000
      4 C4         -9.4038    3.9374   52.6181 C.2        g      0.0000
      5 O5         -9.5722    4.3590   53.7471 O.2        g      0.0000
      6 N6         -9.8154    4.6629   51.5595 N.am       g      0.0000
      7 C7        -10.4656    5.9591   51.7681 C.3        g      0.0000
      8 C8         -9.6126    4.1554   50.2003 C.3        g      0.0000
      9 H9         -8.8932    3.3365   50.2032 H          g      0.0000
     10 C10       -10.9573    3.6931   49.5882 C.3        g      0.0000
     11 C11       -11.3668    4.9227   48.7380 C.3        g      0.0000
     12 O12       -10.1107    5.4010   48.2108 O.3        g      0.0000
     13 C13        -9.1385    5.2865   49.2674 C.3        g      0.0000
     14 S14        -7.0454    2.4220   52.0620 S.3        g      0.0000
     15 C15        -7.2313    0.6748   51.9893 C.ar       g      0.0000
     16 N16        -6.3440   -0.2988   51.7554 N.ar       g      0.0000
     17 C17        -6.7084   -1.5606   51.7483 C.ar       g      0.0000
     18 N18        -7.9556   -1.9343   51.9688 N.ar       g      0.0000
     19 C19        -8.9076   -1.0458   52.2099 C.ar       g      0.0000
     20 N20       -10.2060   -1.4540   52.4383 N.pl3      g      0.0000
     21 C21       -10.5389   -2.8806   52.4226 C.3        g      0.0000
     22 C22       -11.6055   -3.1589   53.4501 C.ar       g      0.0000
     23 N23       -11.2571   -3.4713   54.6829 N.ar       g      0.0000
     24 C24       -12.1558   -3.7224   55.6150 C.ar       g      0.0000
     25 C25       -11.7044   -4.0748   57.0089 C.3        g      0.0000
     26 C26       -13.5063   -3.6657   55.3283 C.ar       g      0.0000
     27 C27       -13.9111   -3.3404   54.0425 C.ar       g      0.0000
     28 C28       -12.9378   -3.0783   53.0908 C.ar       g      0.0000
     29 C29        -8.5692    0.3367   52.2353 C.ar       g      0.0000
     30 H30       -11.0017    0.8802   53.7176 H          g      0.0000
     31 H31       -11.3059    2.3299   52.7305 H          g      0.0000
     32 H32       -11.3217    0.7187   51.9741 H          g      0.0000
     33 H33        -9.7524    6.6570   52.2064 H          g      0.0000
     34 H34       -10.8143    6.3486   50.8116 H          g      0.0000
     35 H35       -11.3140    5.8359   52.4413 H          g      0.0000
     36 H36       -10.8166    2.8144   48.9588 H          g      0.0000
     37 H37       -11.6930    3.4972   50.3684 H          g      0.0000
     38 H38       -12.0341    4.6249   47.9292 H          g      0.0000
     39 H39       -11.8351    5.6829   49.3632 H          g      0.0000
     40 H40        -9.0808    6.2236   49.8211 H          g      0.0000
     41 H41        -8.1627    5.0408   48.8482 H          g      0.0000
     42 H42        -5.9631   -2.3179   51.5552 H          g      0.0000
     43 H43       -10.8982   -0.7963   52.6092 H          g      0.0000
     44 H44       -10.9055   -3.1574   51.4341 H          g      0.0000
     45 H45        -9.6483   -3.4641   52.6562 H          g      0.0000
     46 H46       -11.6084   -3.1646   57.6008 H          g      0.0000
     47 H47       -12.4382   -4.7340   57.4727 H          g      0.0000
     48 H48       -10.7401   -4.5808   56.9616 H          g      0.0000
     49 H49       -14.2374   -3.8723   56.0960 H          g      0.0000
     50 H50       -14.9599   -3.2886   53.7895 H          g      0.0000
     51 H51       -13.2169   -2.8215   52.0796 H          g      0.0000
@<TRIPOS>BOND
     1     1     2    1
     2     1    30    1
     3     1    31    1
     4     1    32    1
     5     2    29    1
     6     2     3    2
     7     3     4    1
     8     3    14    1
     9     4     5    2
    10     4     6   am
    11     6     7    1
    12     6     8    1
    13     7    33    1
    14     7    34    1
    15     7    35    1
    16     8     9    1
    17     8    13    1
    18     8    10    1
    19    10    11    1
    20    10    36    1
    21    10    37    1
    22    11    12    1
    23    11    38    1
    24    11    39    1
    25    12    13    1
    26    13    40    1
    27    13    41    1
    28    14    15    1
    29    15    29   ar
    30    15    16   ar
    31    16    17   ar
    32    17    18   ar
    33    17    42    1
    34    18    19   ar
    35    19    20    1
    36    19    29   ar
    37    20    21    1
    38    20    43    1
    39    21    22    1
    40    21    44    1
    41    21    45    1
    42    22    28   ar
    43    22    23   ar
    44    23    24   ar
    45    24    25    1
    46    24    26   ar
    47    25    46    1
    48    25    47    1
    49    25    48    1
    50    26    27   ar
    51    26    49    1
    52    27    28   ar
    53    27    50    1
    54    28    51    1
@<TRIPOS>SUBSTRUCTURE
     1 g        1 TEMP              0 ****  ****    0 ROOT


##########                                Name:    ZINC000032503012
##########                DOCK_Rotatable_Bonds:                   8
##########                         Heavy_Atoms:                  27
##########                    Molecular_Weight:             390.503
##########                DOCK_Rotatable_Bonds:                   8
##########                       Formal_Charge:           0.0099995
##########                     HBond_Acceptors:                   7
##########                        HBond_Donors:                   2
##########                         Heavy_Atoms:                  27
##########                          Grid_Score:          -31.935303
##########                     Grid_vdw_energy:          -31.281998
##########                      Grid_es_energy:           -0.653305
##########           Internal_energy_repulsive:           41.083988

@<TRIPOS>MOLECULE
ZINC000032503012
 53 54 1 0 0
SMALL
USER_CHARGES


@<TRIPOS>ATOM
      1 C1         -8.6307    0.6343   52.8575 C.3     1  ZINC000032503012   -0.1200
      2 C2         -7.5714    1.7042   52.9213 C.ar    1  ZINC000032503012   -0.0500
      3 C3         -7.8918    2.9664   53.3855 C.ar    1  ZINC000032503012   -0.1600
      4 C4         -6.9220    3.9505   53.4453 C.ar    1  ZINC000032503012   -0.0700
      5 C5         -5.6304    3.6743   53.0412 C.ar    1  ZINC000032503012   -0.1500
      6 C6         -5.3064    2.4083   52.5749 C.ar    1  ZINC000032503012    0.1300
      7 O7         -4.0361    2.1339   52.1770 O.3     1  ZINC000032503012   -0.2800
      8 C8         -3.0473    3.1344   52.4281 C.3     1  ZINC000032503012    0.0700
      9 H9         -3.4338    4.1097   52.1323 H       1  ZINC000032503012    0.1100
     10 C10        -2.7065    3.1518   53.9196 C.3     1  ZINC000032503012   -0.1800
     11 C11        -1.8055    2.8240   51.6328 C.2     1  ZINC000032503012    0.5200
     12 O12        -0.9436    3.6670   51.5004 O.2     1  ZINC000032503012   -0.4900
     13 N13        -1.6525    1.6096   51.0686 N.am    1  ZINC000032503012   -0.6700
     14 C14        -0.4995    1.3213   50.3301 C.ar    1  ZINC000032503012    0.1300
     15 C15         0.7164    1.1486   50.9779 C.ar    1  ZINC000032503012   -0.0600
     16 C16         1.8529    0.8641   50.2461 C.ar    1  ZINC000032503012   -0.1200
     17 C17         1.7807    0.7518   48.8699 C.ar    1  ZINC000032503012   -0.0300
     18 C18         0.5712    0.9237   48.2216 C.ar    1  ZINC000032503012   -0.6600
     19 S19         0.4844    0.7796   46.4676 S.o2    1  ZINC000032503012    2.7000
     20 O20         1.8183    0.5946   46.0138 O.2     1  ZINC000032503012   -0.9600
     21 O21        -0.5647   -0.1383   46.1918 O.2     1  ZINC000032503012   -0.9500
     22 N22        -0.0106    2.2462   45.8792 N.am    1  ZINC000032503012   -1.1100
     23 C23         0.7919    3.4456   46.1319 C.3     1  ZINC000032503012    0.1700
     24 C24         2.2753    3.1118   45.9620 C.3     1  ZINC000032503012   -0.1900
     25 C25         0.3985    4.5409   45.1388 C.3     1  ZINC000032503012   -0.1500
     26 C26         0.5397    3.9364   47.5590 C.3     1  ZINC000032503012   -0.1800
     27 C27        -0.5699    1.2017   48.9481 C.ar    1  ZINC000032503012   -0.0400
     28 C28        -6.2796    1.4213   52.5212 C.ar    1  ZINC000032503012   -0.2100
     29 H29        -8.6525    0.0878   53.8003 H       1  ZINC000032503012    0.0700
     30 H30        -9.6028    1.0953   52.6822 H       1  ZINC000032503012    0.0700
     31 H31        -8.4031   -0.0542   52.0437 H       1  ZINC000032503012    0.0700
     32 H32        -8.9012    3.1844   53.7016 H       1  ZINC000032503012    0.1300
     33 H33        -7.1748    4.9358   53.8079 H       1  ZINC000032503012    0.1300
     34 H34        -4.8735    4.4432   53.0877 H       1  ZINC000032503012    0.1300
     35 H35        -3.6047    3.3764   54.4949 H       1  ZINC000032503012    0.0800
     36 H36        -2.3200    2.1765   54.2153 H       1  ZINC000032503012    0.0800
     37 H37        -1.9522    3.9150   54.1111 H       1  ZINC000032503012    0.0800
     38 H38        -2.3418    0.9353   51.1744 H       1  ZINC000032503012    0.4100
     39 H39         0.7737    1.2368   52.0528 H       1  ZINC000032503012    0.1400
     40 H40         2.7990    0.7296   50.7493 H       1  ZINC000032503012    0.1400
     41 H41         2.6708    0.5297   48.2999 H       1  ZINC000032503012    0.1500
     42 H42        -0.8319    2.3112   45.3671 H       1  ZINC000032503012    0.4200
     43 H43         2.4256    2.5978   45.0126 H       1  ZINC000032503012    0.0700
     44 H44         2.8585    4.0326   45.9731 H       1  ZINC000032503012    0.0800
     45 H45         2.5986    2.4671   46.7794 H       1  ZINC000032503012    0.0700
     46 H46        -0.6582    4.7788   45.2598 H       1  ZINC000032503012    0.0700
     47 H47         0.9956    5.4333   45.3269 H       1  ZINC000032503012    0.0700
     48 H48         0.5782    4.1912   44.1222 H       1  ZINC000032503012    0.0600
     49 H49         0.9983    3.2461   48.2670 H       1  ZINC000032503012    0.0900
     50 H50         0.9751    4.9279   47.6844 H       1  ZINC000032503012    0.0700
     51 H51        -0.5336    3.9851   47.7421 H       1  ZINC000032503012    0.0600
     52 H52        -1.5141    1.3359   48.4413 H       1  ZINC000032503012    0.1400
     53 H53        -6.0298    0.4351   52.1586 H       1  ZINC000032503012    0.1300
@<TRIPOS>BOND
     1     1     2    1
     2     1    29    1
     3     1    30    1
     4     1    31    1
     5     2    28   ar
     6     2     3   ar
     7     3     4   ar
     8     3    32    1
     9     4     5   ar
    10     4    33    1
    11     5     6   ar
    12     5    34    1
    13     6     7    1
    14     6    28   ar
    15     7     8    1
    16     8     9    1
    17     8    10    1
    18     8    11    1
    19    10    35    1
    20    10    36    1
    21    10    37    1
    22    11    12    2
    23    11    13   am
    24    13    14    1
    25    13    38    1
    26    14    27   ar
    27    14    15   ar
    28    15    16   ar
    29    15    39    1
    30    16    17   ar
    31    16    40    1
    32    17    18   ar
    33    17    41    1
    34    18    19    1
    35    18    27   ar
    36    19    20    2
    37    19    21    2
    38    19    22   am
    39    22    23    1
    40    22    42    1
    41    23    24    1
    42    23    25    1
    43    23    26    1
    44    24    43    1
    45    24    44    1
    46    24    45    1
    47    25    46    1
    48    25    47    1
    49    25    48    1
    50    26    49    1
    51    26    50    1
    52    26    51    1
    53    27    52    1
    54    28    53    1
@<TRIPOS>SUBSTRUCTURE
     1 ZINC000032503012        1 TEMP              0 ****  ****    0 ROOT


##########                                Name:    ZINC000533037883
##########                DOCK_Rotatable_Bonds:                   7
##########                         Heavy_Atoms:                  27
##########                    Molecular_Weight:             368.479
##########                DOCK_Rotatable_Bonds:                   7
##########                       Formal_Charge:          0.00999947
##########                     HBond_Acceptors:                   6
##########                        HBond_Donors:                   1
##########                         Heavy_Atoms:                  27
##########                          Grid_Score:          -31.927511
##########                     Grid_vdw_energy:          -32.290928
##########                      Grid_es_energy:            0.363416
##########           Internal_energy_repulsive:           15.421779

@<TRIPOS>MOLECULE
ZINC000533037883
 55 58 1 0 0
SMALL
USER_CHARGES


@<TRIPOS>ATOM
      1 O1         -0.2845    1.2810   50.6595 O.2     1  ZINC000533037883   -0.5900
      2 C2         -0.7365    2.1836   49.9816 C.2     1  ZINC000533037883    0.7100
      3 N3         -1.4076    3.1951   50.5672 N.am    1  ZINC000533037883   -0.7500
      4 C4         -1.5979    3.2040   52.0198 C.3     1  ZINC000533037883    0.1400
      5 C5         -2.6161    4.2828   52.3941 C.3     1  ZINC000533037883   -0.0500
      6 C6         -3.9635    3.6459   52.6177 C.2     1  ZINC000533037883   -0.2300
      7 C7         -4.3518    2.4280   52.1738 C.2     1  ZINC000533037883    0.0600
      8 N8         -5.6248    2.2275   52.5832 N.pl3   1  ZINC000533037883   -0.3200
      9 C9         -6.4019    1.0878   52.3337 C.ar    1  ZINC000533037883    0.1600
     10 C10        -7.7537    1.0845   52.6508 C.ar    1  ZINC000533037883   -0.1400
     11 C11        -8.5168   -0.0399   52.4038 C.ar    1  ZINC000533037883   -0.0900
     12 C12        -7.9357   -1.1618   51.8419 C.ar    1  ZINC000533037883   -0.1300
     13 C13        -6.5898   -1.1615   51.5250 C.ar    1  ZINC000533037883   -0.0900
     14 C14        -5.8228   -0.0380   51.7639 C.ar    1  ZINC000533037883   -0.1200
     15 N15        -6.0293    3.3602   53.3015 N.2     1  ZINC000533037883   -0.2900
     16 C16        -5.0318    4.2070   53.3260 C.2     1  ZINC000533037883    0.0700
     17 N17        -0.5615    2.1754   48.6453 N.am    1  ZINC000533037883   -0.6300
     18 C18        -1.0964    3.2621   47.8136 C.3     1  ZINC000533037883    0.1100
     19 C19         0.0392    3.8333   46.9586 C.3     1  ZINC000533037883   -0.1400
     20 C20         0.6955    2.7002   46.1664 C.3     1  ZINC000533037883   -0.1100
     21 C21         1.2892    1.6753   47.1355 C.3     1  ZINC000533037883   -0.0900
     22 H22         2.0191    2.1646   47.7804 H       1  ZINC000533037883    0.0800
     23 C23         1.9743    0.5603   46.3429 C.3     1  ZINC000533037883   -0.1200
     24 H24         1.2694    0.0792   45.6649 H       1  ZINC000533037883    0.0900
     25 C25         3.2021    1.1087   45.5659 C.3     1  ZINC000533037883   -0.1500
     26 C26         4.0885   -0.1596   45.4838 C.3     1  ZINC000533037883    0.0500
     27 O27         3.8876   -0.8392   46.7332 O.3     1  ZINC000533037883   -0.3900
     28 C28         2.6164   -0.4739   47.2923 C.3     1  ZINC000533037883    0.0500
     29 C29         0.1730    1.0827   47.9931 C.3     1  ZINC000533037883    0.1300
     30 H30        -1.7648    3.9172   50.0268 H       1  ZINC000533037883    0.4000
     31 H31        -1.9644    2.2302   52.3441 H       1  ZINC000533037883    0.0700
     32 H32        -0.6473    3.4160   52.5093 H       1  ZINC000533037883    0.0700
     33 H33        -2.2952    4.7842   53.3073 H       1  ZINC000533037883    0.0800
     34 H34        -2.6879    5.0107   51.5860 H       1  ZINC000533037883    0.0800
     35 H35        -3.7526    1.7400   51.5958 H       1  ZINC000533037883    0.1800
     36 H36        -8.2079    1.9602   53.0903 H       1  ZINC000533037883    0.1300
     37 H37        -9.5684   -0.0430   52.6502 H       1  ZINC000533037883    0.1300
     38 H38        -8.5344   -2.0401   51.6503 H       1  ZINC000533037883    0.1300
     39 H39        -6.1387   -2.0393   51.0862 H       1  ZINC000533037883    0.1300
     40 H40        -4.7717   -0.0383   51.5160 H       1  ZINC000533037883    0.1400
     41 H41        -5.0347    5.1747   53.8053 H       1  ZINC000533037883    0.1900
     42 H42        -1.8818    2.8735   47.1654 H       1  ZINC000533037883    0.0700
     43 H43        -1.5021    4.0460   48.4532 H       1  ZINC000533037883    0.0800
     44 H44        -0.3629    4.5746   46.2680 H       1  ZINC000533037883    0.0800
     45 H45         0.7809    4.3023   47.6051 H       1  ZINC000533037883    0.0700
     46 H46        -0.0522    2.2157   45.5385 H       1  ZINC000533037883    0.0700
     47 H47         1.4878    3.1078   45.5385 H       1  ZINC000533037883    0.0700
     48 H48         2.9163    1.4531   44.5721 H       1  ZINC000533037883    0.0800
     49 H49         3.6998    1.9003   46.1259 H       1  ZINC000533037883    0.0800
     50 H50         3.7700   -0.7908   44.6543 H       1  ZINC000533037883    0.0600
     51 H51         5.1363    0.1180   45.3685 H       1  ZINC000533037883    0.0900
     52 H52         2.7596   -0.0291   48.2771 H       1  ZINC000533037883    0.0700
     53 H53         1.9807   -1.3557   47.3725 H       1  ZINC000533037883    0.0700
     54 H54         0.6030    0.4269   48.7502 H       1  ZINC000533037883    0.1000
     55 H55        -0.5113    0.5160   47.3618 H       1  ZINC000533037883    0.0700
@<TRIPOS>BOND
     1     1     2    2
     2     2     3   am
     3     2    17   am
     4     3     4    1
     5     3    30    1
     6     4     5    1
     7     4    31    1
     8     4    32    1
     9     5     6    1
    10     5    33    1
    11     5    34    1
    12     6    16    1
    13     6     7    2
    14     7     8    1
    15     7    35    1
    16     8     9    1
    17     8    15    1
    18     9    14   ar
    19     9    10   ar
    20    10    11   ar
    21    10    36    1
    22    11    12   ar
    23    11    37    1
    24    12    13   ar
    25    12    38    1
    26    13    14   ar
    27    13    39    1
    28    14    40    1
    29    15    16    2
    30    16    41    1
    31    17    29    1
    32    17    18    1
    33    18    19    1
    34    18    42    1
    35    18    43    1
    36    19    20    1
    37    19    44    1
    38    19    45    1
    39    20    21    1
    40    20    46    1
    41    20    47    1
    42    21    22    1
    43    21    23    1
    44    21    29    1
    45    23    24    1
    46    23    28    1
    47    23    25    1
    48    25    26    1
    49    25    48    1
    50    25    49    1
    51    26    27    1
    52    26    50    1
    53    26    51    1
    54    27    28    1
    55    28    52    1
    56    28    53    1
    57    29    54    1
    58    29    55    1
@<TRIPOS>SUBSTRUCTURE
     1 ZINC000533037883        1 TEMP              0 ****  ****    0 ROOT


##########                                Name:    ZINC000474368324
##########                DOCK_Rotatable_Bonds:                   9
##########                         Heavy_Atoms:                  27
##########                    Molecular_Weight:             417.332
##########                DOCK_Rotatable_Bonds:                   9
##########                       Formal_Charge:        -1.63913e-07
##########                     HBond_Acceptors:                   8
##########                        HBond_Donors:                   1
##########                         Heavy_Atoms:                  27
##########                          Grid_Score:          -31.920847
##########                     Grid_vdw_energy:          -32.415855
##########                      Grid_es_energy:            0.495009
##########           Internal_energy_repulsive:           26.191675

@<TRIPOS>MOLECULE
ZINC000474368324
 53 54 1 0 0
SMALL
USER_CHARGES


@<TRIPOS>ATOM
      1 C1          4.4401    1.0458   45.3340 C.3     1  ZINC000474368324   -0.1500
      2 C2          3.4412    0.0041   45.8419 C.3     1  ZINC000474368324    0.0600
      3 O3          2.1463    0.6310   46.0390 O.3     1  ZINC000474368324   -0.3300
      4 C4          1.9505    1.2724   47.2017 C.2     1  ZINC000474368324    0.4700
      5 O5          2.8084    1.2566   48.0524 O.2     1  ZINC000474368324   -0.5100
      6 C6          0.6605    2.0123   47.4461 C.3     1  ZINC000474368324   -0.0400
      7 C7          0.0144    2.3670   46.1053 C.3     1  ZINC000474368324    0.0600
      8 O8          0.9037    3.1936   45.3518 O.3     1  ZINC000474368324   -0.3700
      9 C9          0.2598    4.2766   44.6777 C.3     1  ZINC000474368324    0.0300
     10 C10        -0.2914    1.1250   48.2515 C.3     1  ZINC000474368324   -0.1200
     11 C11        -1.6141    1.8669   48.4683 C.3     1  ZINC000474368324    0.1100
     12 N12        -1.3304    3.1676   49.0899 N.am    1  ZINC000474368324   -0.6300
     13 C13        -1.9485    3.5331   50.2303 C.2     1  ZINC000474368324    0.7100
     14 O14        -1.7051    4.6123   50.7349 O.2     1  ZINC000474368324   -0.5800
     15 N15        -2.8366    2.7025   50.8116 N.am    1  ZINC000474368324   -0.7400
     16 C16        -3.5085    3.0997   52.0512 C.3     1  ZINC000474368324    0.2000
     17 H17        -3.8146    4.1434   51.9803 H       1  ZINC000474368324    0.1100
     18 C18        -2.5475    2.9291   53.2295 C.3     1  ZINC000474368324   -0.1600
     19 C19        -4.7231    2.2334   52.2642 C.ar    1  ZINC000474368324   -0.0700
     20 C20        -4.7407    0.9379   51.7833 C.ar    1  ZINC000474368324   -0.1000
     21 C21        -5.8545    0.1421   51.9787 C.ar    1  ZINC000474368324   -0.0900
     22 C22        -6.9514    0.6415   52.6549 C.ar    1  ZINC000474368324   -0.1000
     23 C23        -6.9356    1.9381   53.1370 C.ar    1  ZINC000474368324   -0.0300
     24 Cl24       -8.3132    2.5658   53.9865 Cl      1  ZINC000474368324   -0.0400
     25 C25        -5.8183    2.7331   52.9460 C.ar    1  ZINC000474368324   -0.0300
     26 Cl26       -5.7965    4.3602   53.5508 Cl      1  ZINC000474368324   -0.0400
     27 C27        -0.3594    4.0621   48.4448 C.3     1  ZINC000474368324    0.1300
     28 C28         0.9491    3.2956   48.2284 C.3     1  ZINC000474368324   -0.1200
     29 H29         5.4121    0.5752   45.1861 H       1  ZINC000474368324    0.0800
     30 H30         4.0874    1.4563   44.3878 H       1  ZINC000474368324    0.0700
     31 H31         4.5324    1.8480   46.0662 H       1  ZINC000474368324    0.0700
     32 H32         3.3489   -0.7981   45.1097 H       1  ZINC000474368324    0.0700
     33 H33         3.7939   -0.4063   46.7881 H       1  ZINC000474368324    0.0700
     34 H34        -0.1918    1.4531   45.5483 H       1  ZINC000474368324    0.0700
     35 H35        -0.9181    2.9031   46.2819 H       1  ZINC000474368324    0.0600
     36 H36        -0.4805    3.8825   43.9814 H       1  ZINC000474368324    0.0400
     37 H37        -0.2336    4.9175   45.4083 H       1  ZINC000474368324    0.0400
     38 H38         1.0023    4.8560   44.1289 H       1  ZINC000474368324    0.0900
     39 H39        -0.4781    0.2009   47.7043 H       1  ZINC000474368324    0.1000
     40 H40         0.1576    0.8923   49.2170 H       1  ZINC000474368324    0.0800
     41 H41        -2.1084    2.0205   47.5090 H       1  ZINC000474368324    0.0800
     42 H42        -2.2583    1.2813   49.1241 H       1  ZINC000474368324    0.0800
     43 H43        -3.0308    1.8416   50.4090 H       1  ZINC000474368324    0.3900
     44 H44        -2.2414    1.8853   53.3005 H       1  ZINC000474368324    0.0600
     45 H45        -1.6690    3.5556   53.0755 H       1  ZINC000474368324    0.0700
     46 H46        -3.0475    3.2246   54.1519 H       1  ZINC000474368324    0.0700
     47 H47        -3.8841    0.5468   51.2544 H       1  ZINC000474368324    0.1300
     48 H48        -5.8673   -0.8701   51.6021 H       1  ZINC000474368324    0.1400
     49 H49        -7.8213    0.0195   52.8069 H       1  ZINC000474368324    0.1500
     50 H50        -0.7515    4.3947   47.4837 H       1  ZINC000474368324    0.0700
     51 H51        -0.1759    4.9249   49.0852 H       1  ZINC000474368324    0.1100
     52 H52         1.3864    3.0424   49.1941 H       1  ZINC000474368324    0.0900
     53 H53         1.6455    3.9164   47.6647 H       1  ZINC000474368324    0.0900
@<TRIPOS>BOND
     1     1     2    1
     2     1    29    1
     3     1    30    1
     4     1    31    1
     5     2     3    1
     6     2    32    1
     7     2    33    1
     8     3     4    1
     9     4     5    2
    10     4     6    1
    11     6    28    1
    12     6     7    1
    13     6    10    1
    14     7     8    1
    15     7    34    1
    16     7    35    1
    17     8     9    1
    18     9    36    1
    19     9    37    1
    20     9    38    1
    21    10    11    1
    22    10    39    1
    23    10    40    1
    24    11    12    1
    25    11    41    1
    26    11    42    1
    27    12    13   am
    28    12    27    1
    29    13    14    2
    30    13    15   am
    31    15    16    1
    32    15    43    1
    33    16    17    1
    34    16    18    1
    35    16    19    1
    36    18    44    1
    37    18    45    1
    38    18    46    1
    39    19    25   ar
    40    19    20   ar
    41    20    21   ar
    42    20    47    1
    43    21    22   ar
    44    21    48    1
    45    22    23   ar
    46    22    49    1
    47    23    24    1
    48    23    25   ar
    49    25    26    1
    50    27    28    1
    51    27    50    1
    52    27    51    1
    53    28    52    1
    54    28    53    1
@<TRIPOS>SUBSTRUCTURE
     1 ZINC000474368324        1 TEMP              0 ****  ****    0 ROOT


##########                                Name:    ZINC000047262406
##########                DOCK_Rotatable_Bonds:                   6
##########                         Heavy_Atoms:                  28
##########                    Molecular_Weight:             417.919
##########                DOCK_Rotatable_Bonds:                   6
##########                       Formal_Charge:          -0.0100002
##########                     HBond_Acceptors:                   9
##########                        HBond_Donors:                   1
##########                         Heavy_Atoms:                  28
##########                          Grid_Score:          -31.886047
##########                     Grid_vdw_energy:          -31.423082
##########                      Grid_es_energy:           -0.462966
##########           Internal_energy_repulsive:           14.534472

@<TRIPOS>MOLECULE
ZINC000047262406
 48 51 1 0 0
SMALL
USER_CHARGES


@<TRIPOS>ATOM
      1 C1        -12.8269   -2.2796   53.5479 C.3     1  ZINC000047262406   -0.1500
      2 C2        -11.5458   -2.7046   54.2686 C.3     1  ZINC000047262406    0.1800
      3 H3        -11.2797   -3.7183   53.9691 H       1  ZINC000047262406    0.0800
      4 C4        -11.7702   -2.6634   55.7582 C.2     1  ZINC000047262406    0.1700
      5 N5        -12.8433   -3.0551   56.3852 N.2     1  ZINC000047262406   -0.2500
      6 N6        -12.6927   -2.8775   57.6505 N.2     1  ZINC000047262406   -0.2700
      7 C7        -11.5046   -2.3605   57.8769 C.2     1  ZINC000047262406    0.2400
      8 C8        -10.9420   -2.0069   59.1887 C.2     1  ZINC000047262406   -0.1500
      9 C9        -11.5777   -2.1538   60.3837 C.2     1  ZINC000047262406   -0.0600
     10 C10       -10.8407   -1.7499   61.4750 C.2     1  ZINC000047262406   -0.1400
     11 C11        -9.6213   -1.2783   61.1951 C.2     1  ZINC000047262406   -0.1900
     12 S12        -9.3393   -1.3350   59.4606 S.3     1  ZINC000047262406    0.1700
     13 O13       -10.8964   -2.2210   56.6808 O.3     1  ZINC000047262406   -0.2200
     14 N14       -10.4558   -1.7865   53.9120 N.3     1  ZINC000047262406   -0.5200
     15 C15       -10.8829   -0.3875   54.0406 C.3     1  ZINC000047262406    0.0500
     16 C16        -9.6861    0.5365   53.8038 C.3     1  ZINC000047262406   -0.1000
     17 C17        -9.1207    0.2825   52.4036 C.3     1  ZINC000047262406   -0.1100
     18 C18        -7.9053    1.1467   52.1869 C.2     1  ZINC000047262406    0.5100
     19 O19        -7.9895    2.1549   51.5180 O.2     1  ZINC000047262406   -0.4600
     20 N20        -6.7248    0.7993   52.7366 N.am    1  ZINC000047262406   -0.6600
     21 C21        -5.6000    1.5991   52.5362 C.ar    1  ZINC000047262406    0.3600
     22 C22        -5.4018    2.7202   53.3333 C.ar    1  ZINC000047262406   -0.2000
     23 C23        -4.2814    3.5055   53.1246 C.ar    1  ZINC000047262406   -0.0400
     24 C24        -3.3942    3.1400   52.1206 C.ar    1  ZINC000047262406   -0.1200
     25 Cl25       -1.9730    4.0897   51.8172 Cl      1  ZINC000047262406   -0.0500
     26 C26        -3.6547    2.0116   51.3659 C.ar    1  ZINC000047262406    0.1500
     27 N27        -4.7288    1.2803   51.5920 N.ar    1  ZINC000047262406   -0.4600
     28 C28        -8.7285   -1.1925   52.2799 C.3     1  ZINC000047262406   -0.1100
     29 C29        -9.9530   -2.0662   52.5610 C.3     1  ZINC000047262406    0.0600
     30 H30       -12.6645   -2.3093   52.4705 H       1  ZINC000047262406    0.0800
     31 H31       -13.6356   -2.9607   53.8124 H       1  ZINC000047262406    0.0700
     32 H32       -13.0930   -1.2658   53.8474 H       1  ZINC000047262406    0.0800
     33 H33       -12.5774   -2.5538   60.4688 H       1  ZINC000047262406    0.1600
     34 H34       -11.2206   -1.8095   62.4842 H       1  ZINC000047262406    0.1600
     35 H35        -8.9126   -0.9194   61.9268 H       1  ZINC000047262406    0.1800
     36 H36       -11.6573   -0.1749   53.3034 H       1  ZINC000047262406    0.0400
     37 H37       -11.2790   -0.2191   55.0420 H       1  ZINC000047262406    0.0900
     38 H38       -10.0068    1.5752   53.8838 H       1  ZINC000047262406    0.0800
     39 H39        -8.9169    0.3339   54.5490 H       1  ZINC000047262406    0.0900
     40 H40        -9.8768    0.5232   51.6563 H       1  ZINC000047262406    0.1000
     41 H41        -6.6575   -0.0070   53.2716 H       1  ZINC000047262406    0.4200
     42 H42        -6.1128    2.9753   54.1053 H       1  ZINC000047262406    0.1500
     43 H43        -4.1015    4.3827   53.7284 H       1  ZINC000047262406    0.1500
     44 H44        -2.9682    1.7232   50.5836 H       1  ZINC000047262406    0.1700
     45 H45        -8.3649   -1.3889   51.2713 H       1  ZINC000047262406    0.0700
     46 H46        -7.9442   -1.4222   53.0013 H       1  ZINC000047262406    0.0800
     47 H47        -9.6737   -3.1172   52.4877 H       1  ZINC000047262406    0.0700
     48 H48       -10.7318   -1.8458   51.8308 H       1  ZINC000047262406    0.0400
@<TRIPOS>BOND
     1     1     2    1
     2     1    30    1
     3     1    31    1
     4     1    32    1
     5     2     3    1
     6     2     4    1
     7     2    14    1
     8     4    13    1
     9     4     5    2
    10     5     6    1
    11     6     7    2
    12     7     8    1
    13     7    13    1
    14     8    12    1
    15     8     9    2
    16     9    10    1
    17     9    33    1
    18    10    11    2
    19    10    34    1
    20    11    12    1
    21    11    35    1
    22    14    29    1
    23    14    15    1
    24    15    16    1
    25    15    36    1
    26    15    37    1
    27    16    17    1
    28    16    38    1
    29    16    39    1
    30    17    18    1
    31    17    28    1
    32    17    40    1
    33    18    19    2
    34    18    20   am
    35    20    21    1
    36    20    41    1
    37    21    27   ar
    38    21    22   ar
    39    22    23   ar
    40    22    42    1
    41    23    24   ar
    42    23    43    1
    43    24    25    1
    44    24    26   ar
    45    26    27   ar
    46    26    44    1
    47    28    29    1
    48    28    45    1
    49    28    46    1
    50    29    47    1
    51    29    48    1
@<TRIPOS>SUBSTRUCTURE
     1 ZINC000047262406        1 TEMP              0 ****  ****    0 ROOT


##########                                Name:    ZINC000536173632
##########                DOCK_Rotatable_Bonds:                   7
##########                         Heavy_Atoms:                  29
##########                    Molecular_Weight:             407.389
##########                DOCK_Rotatable_Bonds:                   7
##########                       Formal_Charge:        -2.98023e-07
##########                     HBond_Acceptors:                   8
##########                        HBond_Donors:                   0
##########                         Heavy_Atoms:                  29
##########                          Grid_Score:          -31.884529
##########                     Grid_vdw_energy:          -30.987036
##########                      Grid_es_energy:           -0.897494
##########           Internal_energy_repulsive:           16.055416

@<TRIPOS>MOLECULE
ZINC000536173632
 49 51 1 0 0
SMALL
USER_CHARGES


@<TRIPOS>ATOM
      1 C1        -11.1500   -2.5973   52.0637 C.3     1  ZINC000536173632    0.0400
      2 O2        -10.8262   -1.1821   52.0346 O.3     1  ZINC000536173632   -0.3500
      3 C3         -9.5788   -0.8324   52.4036 C.2     1  ZINC000536173632    0.5100
      4 O4         -8.7670   -1.6898   52.6890 O.2     1  ZINC000536173632   -0.5000
      5 C5         -9.1980    0.5938   52.4613 C.ar    1  ZINC000536173632   -0.1300
      6 C6        -10.1387    1.5831   52.1691 C.ar    1  ZINC000536173632   -0.0600
      7 C7         -9.7763    2.9131   52.2248 C.ar    1  ZINC000536173632   -0.1300
      8 C8         -8.4840    3.2673   52.5688 C.ar    1  ZINC000536173632   -0.0700
      9 C9         -7.5465    2.2919   52.8596 C.ar    1  ZINC000536173632   -0.0800
     10 C10        -6.1411    2.6874   53.2334 C.3     1  ZINC000536173632   -0.1000
     11 C11        -5.1704    2.0747   52.2571 C.2     1  ZINC000536173632    0.5200
     12 O12        -5.5763    1.3557   51.3687 O.2     1  ZINC000536173632   -0.5200
     13 N13        -3.8511    2.3257   52.3712 N.am    1  ZINC000536173632   -0.6200
     14 C14        -3.3351    3.1947   53.4408 C.3     1  ZINC000536173632    0.0700
     15 C15        -2.4159    4.2460   52.8083 C.3     1  ZINC000536173632    0.0500
     16 O16        -1.4390    3.5899   51.9966 O.3     1  ZINC000536173632   -0.3700
     17 C17        -1.9869    2.8608   50.8957 C.3     1  ZINC000536173632    0.1200
     18 H18        -2.5766    3.5322   50.2717 H       1  ZINC000536173632    0.0800
     19 C19        -0.8685    2.2665   50.0790 C.ar    1  ZINC000536173632   -0.0900
     20 C20         0.2384    1.7305   50.7095 C.ar    1  ZINC000536173632   -0.0600
     21 C21         1.2645    1.1854   49.9602 C.ar    1  ZINC000536173632   -0.1200
     22 C22         1.1831    1.1761   48.5805 C.ar    1  ZINC000536173632   -0.0700
     23 C23         0.0754    1.7114   47.9497 C.ar    1  ZINC000536173632   -0.1800
     24 C24        -0.0131    1.7017   46.4453 C.3     1  ZINC000536173632    0.5100
     25 F25        -1.3478    1.8566   46.0558 F       1  ZINC000536173632   -0.1800
     26 F26         0.7492    2.7538   45.9265 F       1  ZINC000536173632   -0.1800
     27 F27         0.4770    0.4858   45.9571 F       1  ZINC000536173632   -0.1800
     28 C28        -0.9523    2.2525   48.6990 C.ar    1  ZINC000536173632   -0.0500
     29 C29        -2.8836    1.7340   51.4336 C.3     1  ZINC000536173632    0.0900
     30 C30        -7.8970    0.9587   52.8138 C.ar    1  ZINC000536173632   -0.0400
     31 H31       -10.4835   -3.1364   51.3904 H       1  ZINC000536173632    0.0600
     32 H32       -11.0272   -2.9774   53.0779 H       1  ZINC000536173632    0.0600
     33 H33       -12.1823   -2.7404   51.7445 H       1  ZINC000536173632    0.1000
     34 H34       -11.1477    1.3078   51.8997 H       1  ZINC000536173632    0.1400
     35 H35       -10.5032    3.6795   51.9990 H       1  ZINC000536173632    0.1400
     36 H36        -8.2055    4.3100   52.6103 H       1  ZINC000536173632    0.1300
     37 H37        -6.0493    3.7732   53.2042 H       1  ZINC000536173632    0.1100
     38 H38        -5.9187    2.3308   54.2392 H       1  ZINC000536173632    0.1100
     39 H39        -4.1656    3.6888   53.9450 H       1  ZINC000536173632    0.1000
     40 H40        -2.7716    2.5985   54.1584 H       1  ZINC000536173632    0.0800
     41 H41        -3.0072    4.9225   52.1912 H       1  ZINC000536173632    0.0600
     42 H42        -1.9157    4.8121   53.5941 H       1  ZINC000536173632    0.1100
     43 H43         0.3020    1.7378   51.7876 H       1  ZINC000536173632    0.1400
     44 H44         2.1297    0.7672   50.4529 H       1  ZINC000536173632    0.1400
     45 H45         1.9850    0.7509   47.9951 H       1  ZINC000536173632    0.1400
     46 H46        -1.8176    2.6707   48.2063 H       1  ZINC000536173632    0.1400
     47 H47        -2.2724    0.9923   51.9478 H       1  ZINC000536173632    0.0800
     48 H48        -3.4162    1.2626   50.6076 H       1  ZINC000536173632    0.1100
     49 H49        -7.1645    0.1984   53.0414 H       1  ZINC000536173632    0.1400
@<TRIPOS>BOND
     1     1     2    1
     2     1    31    1
     3     1    32    1
     4     1    33    1
     5     2     3    1
     6     3     4    2
     7     3     5    1
     8     5    30   ar
     9     5     6   ar
    10     6     7   ar
    11     6    34    1
    12     7     8   ar
    13     7    35    1
    14     8     9   ar
    15     8    36    1
    16     9    10    1
    17     9    30   ar
    18    10    11    1
    19    10    37    1
    20    10    38    1
    21    11    12    2
    22    11    13   am
    23    13    29    1
    24    13    14    1
    25    14    15    1
    26    14    39    1
    27    14    40    1
    28    15    16    1
    29    15    41    1
    30    15    42    1
    31    16    17    1
    32    17    18    1
    33    17    19    1
    34    17    29    1
    35    19    28   ar
    36    19    20   ar
    37    20    21   ar
    38    20    43    1
    39    21    22   ar
    40    21    44    1
    41    22    23   ar
    42    22    45    1
    43    23    24    1
    44    23    28   ar
    45    24    25    1
    46    24    26    1
    47    24    27    1
    48    28    46    1
    49    29    47    1
    50    29    48    1
    51    30    49    1
@<TRIPOS>SUBSTRUCTURE
     1 ZINC000536173632        1 TEMP              0 ****  ****    0 ROOT


##########                                Name:    ZINC001326371752
##########                DOCK_Rotatable_Bonds:                   5
##########                         Heavy_Atoms:                  25
##########                    Molecular_Weight:             360.397
##########                DOCK_Rotatable_Bonds:                   5
##########                       Formal_Charge:           0.0199999
##########                     HBond_Acceptors:                  10
##########                        HBond_Donors:                   0
##########                         Heavy_Atoms:                  25
##########                          Grid_Score:          -31.873672
##########                     Grid_vdw_energy:          -31.637846
##########                      Grid_es_energy:           -0.235826
##########           Internal_energy_repulsive:            8.442983

@<TRIPOS>MOLECULE
ZINC001326371752
 41 44 1 0 0
SMALL
USER_CHARGES


@<TRIPOS>ATOM
      1 C1         -7.1888   -1.3665   51.7895 C.3     1  ZINC001326371752    0.0300
      2 O2         -8.6113   -1.4523   51.8952 O.3     1  ZINC001326371752   -0.3800
      3 C3         -9.1983   -0.4207   52.6910 C.3     1  ZINC001326371752    0.0500
      4 C4        -10.7136   -0.6233   52.7519 C.3     1  ZINC001326371752    0.1200
      5 N5        -11.0114   -1.8713   53.4589 N.pl3   1  ZINC001326371752   -0.2800
      6 N6        -11.1938   -3.0271   52.9136 N.2     1  ZINC001326371752   -0.0800
      7 N7        -11.4391   -3.9142   53.8180 N.2     1  ZINC001326371752   -0.2500
      8 C8        -11.4187   -3.3232   55.0072 C.2     1  ZINC001326371752   -0.0400
      9 C9        -11.1369   -2.0147   54.7904 C.2     1  ZINC001326371752    0.0000
     10 C10       -11.0073   -0.9757   55.8715 C.3     1  ZINC001326371752   -0.0600
     11 C11       -11.6676   -1.5089   57.1499 C.3     1  ZINC001326371752    0.1200
     12 N12       -11.2516   -2.9028   57.3645 N.am    1  ZINC001326371752   -0.6100
     13 C13       -10.5190   -3.2458   58.4424 C.2     1  ZINC001326371752    0.6100
     14 O14       -10.1825   -4.4039   58.6059 O.2     1  ZINC001326371752   -0.5100
     15 C15       -10.1269   -2.2231   59.4190 C.2     1  ZINC001326371752   -0.3400
     16 C16        -8.8751   -1.6024   59.3373 C.2     1  ZINC001326371752    0.2400
     17 N17        -8.5561   -0.6870   60.2326 N.2     1  ZINC001326371752   -0.5100
     18 C18        -9.3868   -0.3391   61.2063 C.2     1  ZINC001326371752    0.2900
     19 S19        -9.2060    0.8102   62.4764 S.3     1  ZINC001326371752    0.2500
     20 C20       -10.8041    0.5108   63.1775 C.2     1  ZINC001326371752   -0.2100
     21 C21       -11.3533   -0.4204   62.4161 C.2     1  ZINC001326371752    0.0500
     22 N22       -10.6186   -0.8930   61.3555 N.am    1  ZINC001326371752   -0.4600
     23 C23       -11.0078   -1.8429   60.4550 C.2     1  ZINC001326371752    0.5500
     24 O24       -12.1064   -2.3624   60.5475 O.2     1  ZINC001326371752   -0.5000
     25 C25       -11.6507   -3.9178   56.3730 C.3     1  ZINC001326371752    0.2000
     26 H26        -6.8206   -2.1842   51.1701 H       1  ZINC001326371752    0.0900
     27 H27        -6.9151   -0.4144   51.3348 H       1  ZINC001326371752    0.0500
     28 H28        -6.7459   -1.4353   52.7830 H       1  ZINC001326371752    0.0500
     29 H29        -8.7857   -0.4602   53.6992 H       1  ZINC001326371752    0.0600
     30 H30        -8.9792    0.5502   52.2466 H       1  ZINC001326371752    0.0600
     31 H31       -11.1709    0.2124   53.2815 H       1  ZINC001326371752    0.1200
     32 H32       -11.1142   -0.6748   51.7395 H       1  ZINC001326371752    0.1200
     33 H33        -9.9529   -0.7750   56.0611 H       1  ZINC001326371752    0.0900
     34 H34       -11.5055   -0.0582   55.5582 H       1  ZINC001326371752    0.1000
     35 H35       -11.3578   -0.9015   58.0003 H       1  ZINC001326371752    0.1100
     36 H36       -12.7517   -1.4645   57.0455 H       1  ZINC001326371752    0.0800
     37 H37        -8.1810   -1.8687   58.5539 H       1  ZINC001326371752    0.1900
     38 H38       -11.2382    0.9875   64.0439 H       1  ZINC001326371752    0.2200
     39 H39       -12.3447   -0.7964   62.6208 H       1  ZINC001326371752    0.2000
     40 H40       -12.7070   -4.1587   56.4929 H       1  ZINC001326371752    0.1000
     41 H41       -11.0474   -4.8168   56.4987 H       1  ZINC001326371752    0.1000
@<TRIPOS>BOND
     1     1     2    1
     2     1    26    1
     3     1    27    1
     4     1    28    1
     5     2     3    1
     6     3     4    1
     7     3    29    1
     8     3    30    1
     9     4     5    1
    10     4    31    1
    11     4    32    1
    12     5     9    1
    13     5     6    1
    14     6     7    2
    15     7     8    1
    16     8    25    1
    17     8     9    2
    18     9    10    1
    19    10    11    1
    20    10    33    1
    21    10    34    1
    22    11    12    1
    23    11    35    1
    24    11    36    1
    25    12    13   am
    26    12    25    1
    27    13    14    2
    28    13    15    1
    29    15    23    1
    30    15    16    2
    31    16    17    1
    32    16    37    1
    33    17    18    2
    34    18    22    1
    35    18    19    1
    36    19    20    1
    37    20    21    2
    38    20    38    1
    39    21    22    1
    40    21    39    1
    41    22    23   am
    42    23    24    2
    43    25    40    1
    44    25    41    1
@<TRIPOS>SUBSTRUCTURE
     1 ZINC001326371752        1 TEMP              0 ****  ****    0 ROOT


##########                                Name:    ZINC000563265674
##########                DOCK_Rotatable_Bonds:                   7
##########                         Heavy_Atoms:                  25
##########                    Molecular_Weight:             386.859
##########                DOCK_Rotatable_Bonds:                   7
##########                       Formal_Charge:          0.00999963
##########                     HBond_Acceptors:                  10
##########                        HBond_Donors:                   2
##########                         Heavy_Atoms:                  25
##########                          Grid_Score:          -31.860756
##########                     Grid_vdw_energy:          -29.184990
##########                      Grid_es_energy:           -2.675766
##########           Internal_energy_repulsive:           11.867125

@<TRIPOS>MOLECULE
ZINC000563265674
 44 45 1 0 0
SMALL
USER_CHARGES


@<TRIPOS>ATOM
      1 C1         -1.6140    1.1601   58.0022 C.3     1  ZINC000563265674   -0.0600
      2 C2         -0.7203    2.1472   57.2965 C.2     1  ZINC000563265674    0.1700
      3 N3         -1.0662    3.3202   56.8571 N.2     1  ZINC000563265674   -0.3800
      4 O4         -0.1181    3.8700   56.3372 O.3     1  ZINC000563265674    0.0900
      5 C5          0.9550    3.0758   56.3973 C.2     1  ZINC000563265674    0.1900
      6 C6          2.3311    3.3848   55.8663 C.3     1  ZINC000563265674    0.2100
      7 C7          2.5666    4.8960   55.9090 C.3     1  ZINC000563265674   -0.1400
      8 C8          3.3805    2.6806   56.7285 C.3     1  ZINC000563265674   -0.1800
      9 N9          2.4387    2.9116   54.4798 N.3     1  ZINC000563265674   -0.6600
     10 C10         1.3021    3.3783   53.6746 C.3     1  ZINC000563265674    0.0400
     11 C11         1.4395    2.8626   52.2653 C.2     1  ZINC000563265674    0.5200
     12 O12         1.9358    3.5634   51.4088 O.2     1  ZINC000563265674   -0.4900
     13 N13         1.0109    1.6227   51.9566 N.am    1  ZINC000563265674   -0.6700
     14 C14         1.1385    1.1437   50.6474 C.ar    1  ZINC000563265674    0.1400
     15 C15         0.1230    1.3590   49.7259 C.ar    1  ZINC000563265674   -0.0300
     16 C16         0.2520    0.8854   48.4345 C.ar    1  ZINC000563265674   -0.6400
     17 S17        -1.0366    1.1589   47.2643 S.o2    1  ZINC000563265674    2.5000
     18 C18        -0.4605    2.5679   46.2777 C.3     1  ZINC000563265674   -0.6500
     19 O19        -1.0544   -0.0255   46.4793 O.2     1  ZINC000563265674   -0.9300
     20 O20        -2.1565    1.5296   48.0565 O.2     1  ZINC000563265674   -0.9300
     21 C21         1.3909    0.1975   48.0589 C.ar    1  ZINC000563265674   -0.0300
     22 C22         2.4048   -0.0195   48.9741 C.ar    1  ZINC000563265674   -0.1100
     23 C23         2.2847    0.4564   50.2659 C.ar    1  ZINC000563265674   -0.0200
     24 Cl24        3.5579    0.1843   51.4143 Cl      1  ZINC000563265674   -0.0500
     25 N25         0.5830    1.9782   57.0109 N.2     1  ZINC000563265674   -0.4700
     26 H26        -1.5771    1.3402   59.0767 H       1  ZINC000563265674    0.0900
     27 H27        -2.6381    1.2798   57.6487 H       1  ZINC000563265674    0.0900
     28 H28        -1.2731    0.1463   57.7918 H       1  ZINC000563265674    0.0900
     29 H29         2.4868    5.2473   56.9378 H       1  ZINC000563265674    0.0800
     30 H30         3.5619    5.1196   55.5250 H       1  ZINC000563265674    0.0800
     31 H31         1.8190    5.3978   55.2948 H       1  ZINC000563265674    0.0700
     32 H32         3.2128    1.6040   56.6981 H       1  ZINC000563265674    0.0700
     33 H33         4.3759    2.9042   56.3445 H       1  ZINC000563265674    0.0800
     34 H34         3.3007    3.0317   57.7573 H       1  ZINC000563265674    0.0800
     35 H35         3.3147    3.1959   54.0676 H       1  ZINC000563265674    0.3600
     36 H36         0.3732    3.0077   54.1081 H       1  ZINC000563265674    0.1200
     37 H37         1.2882    4.4681   53.6630 H       1  ZINC000563265674    0.0800
     38 H38         0.6140    1.0622   52.6415 H       1  ZINC000563265674    0.4200
     39 H39        -0.7673    1.8959   50.0183 H       1  ZINC000563265674    0.1700
     40 H40         0.4815    2.3112   45.7931 H       1  ZINC000563265674    0.1300
     41 H41        -1.2053    2.8092   45.5193 H       1  ZINC000563265674    0.1400
     42 H42        -0.3115    3.4300   46.9279 H       1  ZINC000563265674    0.1400
     43 H43         1.4888   -0.1716   47.0487 H       1  ZINC000563265674    0.1500
     44 H44         3.2932   -0.5576   48.6778 H       1  ZINC000563265674    0.1500
@<TRIPOS>BOND
     1     1     2    1
     2     1    26    1
     3     1    27    1
     4     1    28    1
     5     2    25    1
     6     2     3    2
     7     3     4    1
     8     4     5    1
     9     5     6    1
    10     5    25    2
    11     6     7    1
    12     6     8    1
    13     6     9    1
    14     7    29    1
    15     7    30    1
    16     7    31    1
    17     8    32    1
    18     8    33    1
    19     8    34    1
    20     9    10    1
    21     9    35    1
    22    10    11    1
    23    10    36    1
    24    10    37    1
    25    11    12    2
    26    11    13   am
    27    13    14    1
    28    13    38    1
    29    14    23   ar
    30    14    15   ar
    31    15    16   ar
    32    15    39    1
    33    16    17    1
    34    16    21   ar
    35    17    18    1
    36    17    19    2
    37    17    20    2
    38    18    40    1
    39    18    41    1
    40    18    42    1
    41    21    22   ar
    42    21    43    1
    43    22    23   ar
    44    22    44    1
    45    23    24    1
@<TRIPOS>SUBSTRUCTURE
     1 ZINC000563265674        1 TEMP              0 ****  ****    0 ROOT


##########                                Name:    ZINC000751548479
##########                DOCK_Rotatable_Bonds:                   9
##########                         Heavy_Atoms:                  27
##########                    Molecular_Weight:             389.407
##########                DOCK_Rotatable_Bonds:                   9
##########                       Formal_Charge:           0.0199995
##########                     HBond_Acceptors:                   9
##########                        HBond_Donors:                   2
##########                         Heavy_Atoms:                  27
##########                          Grid_Score:          -31.856855
##########                     Grid_vdw_energy:          -28.135393
##########                      Grid_es_energy:           -3.721462
##########           Internal_energy_repulsive:            8.672167

@<TRIPOS>MOLECULE
ZINC000751548479
 43 44 1 0 0
SMALL
USER_CHARGES


@<TRIPOS>ATOM
      1 C1         -4.2229    4.6308   55.0412 C.3     1  ZINC000751548479   -0.1600
      2 C2         -5.1970    3.4516   54.9986 C.3     1  ZINC000751548479    0.0800
      3 O3         -6.5242    3.9323   54.6589 O.3     1  ZINC000751548479   -0.3600
      4 C4         -7.4055    3.0225   54.2020 C.2     1  ZINC000751548479    0.6500
      5 O5         -8.4457    3.3875   53.6910 O.2     1  ZINC000751548479   -0.5400
      6 N6         -7.1338    1.7070   54.3117 N.am    1  ZINC000751548479   -0.6500
      7 C7         -8.0476    0.7634   53.8379 C.ar    1  ZINC000751548479    0.2000
      8 C8         -9.3337    0.7194   54.3564 C.ar    1  ZINC000751548479   -0.1000
      9 C9        -10.2383   -0.2128   53.8892 C.ar    1  ZINC000751548479   -0.1000
     10 C10        -9.8688   -1.1142   52.8966 C.ar    1  ZINC000751548479    0.1300
     11 N11       -10.7928   -2.0557   52.4298 N.am    1  ZINC000751548479   -1.0500
     12 S12       -11.1373   -3.3979   53.3366 S.o2    1  ZINC000751548479    2.6800
     13 O13       -12.2040   -4.0652   52.6764 O.2     1  ZINC000751548479   -0.9500
     14 O14        -9.8918   -4.0184   53.6243 O.2     1  ZINC000751548479   -0.9400
     15 C15       -11.7805   -2.8351   54.8776 C.2     1  ZINC000751548479   -0.7500
     16 C16       -11.3974   -3.4143   56.0070 C.2     1  ZINC000751548479    0.0700
     17 C17       -11.9354   -2.9412   57.2996 C.ar    1  ZINC000751548479   -0.1100
     18 C18       -13.2699   -2.5453   57.3999 C.ar    1  ZINC000751548479   -0.0600
     19 C19       -13.7671   -2.1049   58.6087 C.ar    1  ZINC000751548479   -0.1600
     20 C20       -12.9440   -2.0547   59.7223 C.ar    1  ZINC000751548479    0.1200
     21 F21       -13.4358   -1.6222   60.9039 F       1  ZINC000751548479   -0.1300
     22 C22       -11.6183   -2.4471   59.6283 C.ar    1  ZINC000751548479   -0.1600
     23 C23       -11.1124   -2.8941   58.4256 C.ar    1  ZINC000751548479   -0.0500
     24 C24        -8.5890   -1.0820   52.3687 C.ar    1  ZINC000751548479   -0.0600
     25 C25        -7.6696   -0.1388   52.8325 C.ar    1  ZINC000751548479   -0.0300
     26 C26        -6.3444   -0.0990   52.2912 C.1     1  ZINC000751548479    0.2500
     27 N27        -5.2932   -0.0674   51.8617 N.1     1  ZINC000751548479   -0.4000
     28 H28        -4.5531    5.3478   55.7928 H       1  ZINC000751548479    0.0700
     29 H29        -3.2265    4.2699   55.2963 H       1  ZINC000751548479    0.0900
     30 H30        -4.1952    5.1146   54.0648 H       1  ZINC000751548479    0.0700
     31 H31        -4.8667    2.7346   54.2471 H       1  ZINC000751548479    0.0800
     32 H32        -5.2246    2.9678   55.9750 H       1  ZINC000751548479    0.0800
     33 H33        -6.3034    1.4157   54.7197 H       1  ZINC000751548479    0.4200
     34 H34        -9.6276    1.4159   55.1277 H       1  ZINC000751548479    0.1600
     35 H35       -11.2380   -0.2426   54.2968 H       1  ZINC000751548479    0.1700
     36 H36       -11.2315   -1.9223   51.5750 H       1  ZINC000751548479    0.4300
     37 H37       -12.4866   -2.0184   54.9021 H       1  ZINC000751548479    0.1700
     38 H38       -10.6922   -4.2320   55.9823 H       1  ZINC000751548479    0.1500
     39 H39       -13.9120   -2.5834   56.5323 H       1  ZINC000751548479    0.1400
     40 H40       -14.7997   -1.7983   58.6873 H       1  ZINC000751548479    0.1400
     41 H41       -10.9811   -2.4064   60.4994 H       1  ZINC000751548479    0.1400
     42 H42       -10.0792   -3.1999   58.3534 H       1  ZINC000751548479    0.1400
     43 H43        -8.3036   -1.7826   51.5980 H       1  ZINC000751548479    0.1500
@<TRIPOS>BOND
     1     1     2    1
     2     1    28    1
     3     1    29    1
     4     1    30    1
     5     2     3    1
     6     2    31    1
     7     2    32    1
     8     3     4    1
     9     4     5    2
    10     4     6   am
    11     6     7    1
    12     6    33    1
    13     7    25   ar
    14     7     8   ar
    15     8     9   ar
    16     8    34    1
    17     9    10   ar
    18     9    35    1
    19    10    11    1
    20    10    24   ar
    21    11    12   am
    22    11    36    1
    23    12    13    2
    24    12    14    2
    25    12    15    1
    26    15    16    2
    27    15    37    1
    28    16    17    1
    29    16    38    1
    30    17    23   ar
    31    17    18   ar
    32    18    19   ar
    33    18    39    1
    34    19    20   ar
    35    19    40    1
    36    20    21    1
    37    20    22   ar
    38    22    23   ar
    39    22    41    1
    40    23    42    1
    41    24    25   ar
    42    24    43    1
    43    25    26    1
    44    26    27    3
@<TRIPOS>SUBSTRUCTURE
     1 ZINC000751548479        1 TEMP              0 ****  ****    0 ROOT


##########                                Name:    ZINC000437192871
##########                DOCK_Rotatable_Bonds:                   9
##########                         Heavy_Atoms:                  28
##########                    Molecular_Weight:             423.298
##########                DOCK_Rotatable_Bonds:                   9
##########                       Formal_Charge:         -8.9407e-08
##########                     HBond_Acceptors:                   9
##########                        HBond_Donors:                   1
##########                         Heavy_Atoms:                  28
##########                          Grid_Score:          -31.854725
##########                     Grid_vdw_energy:          -31.645437
##########                      Grid_es_energy:           -0.209288
##########           Internal_energy_repulsive:           14.983762

@<TRIPOS>MOLECULE
ZINC000437192871
 48 50 1 0 0
SMALL
USER_CHARGES


@<TRIPOS>ATOM
      1 C1        -15.3478   -2.3638   60.3017 C.3     1  ZINC000437192871   -0.1700
      2 C2        -15.7363   -3.4775   59.3271 C.3     1  ZINC000437192871    0.1300
      3 N3        -14.6389   -3.7055   58.3836 N.pl3   1  ZINC000437192871   -0.3600
      4 C4        -13.7262   -2.7921   57.9917 C.2     1  ZINC000437192871    0.0700
      5 C5        -12.8877   -3.3955   57.1178 C.2     1  ZINC000437192871   -0.2700
      6 C6        -11.7141   -2.7512   56.4261 C.3     1  ZINC000437192871    0.1900
      7 N7        -12.1784   -2.0537   55.2243 N.am    1  ZINC000437192871   -0.6000
      8 C8        -12.6223   -0.6603   55.3115 C.3     1  ZINC000437192871    0.1100
      9 C9        -11.4240    0.2380   55.6247 C.3     1  ZINC000437192871    0.0600
     10 O10       -11.8513    1.6005   55.6793 O.3     1  ZINC000437192871   -0.5600
     11 C11       -12.1971   -2.6939   54.0384 C.2     1  ZINC000437192871    0.6000
     12 O12       -11.8283   -3.8506   53.9660 O.2     1  ZINC000437192871   -0.5000
     13 C13       -12.6638   -1.9928   52.8303 C.2     1  ZINC000437192871   -0.2200
     14 C14       -13.9219   -1.9755   52.2832 C.2     1  ZINC000437192871    0.0100
     15 C15       -15.1422   -2.6880   52.8073 C.3     1  ZINC000437192871   -0.0800
     16 O16       -13.8537   -1.2036   51.1962 O.3     1  ZINC000437192871    0.1100
     17 N17       -12.7531   -0.7506   50.9986 N.2     1  ZINC000437192871   -0.3200
     18 C18       -11.8940   -1.1283   51.9111 C.2     1  ZINC000437192871    0.0800
     19 C19       -10.4571   -0.7732   51.9986 C.ar    1  ZINC000437192871   -0.0200
     20 C20        -9.4856   -1.7708   51.9426 C.ar    1  ZINC000437192871   -0.0700
     21 C21        -8.1497   -1.4351   52.0239 C.ar    1  ZINC000437192871   -0.1000
     22 C22        -7.7728   -0.1099   52.1609 C.ar    1  ZINC000437192871   -0.0100
     23 Cl23       -6.0900    0.3047   52.2621 Cl      1  ZINC000437192871   -0.0500
     24 C24        -8.7330    0.8857   52.2172 C.ar    1  ZINC000437192871   -0.1100
     25 C25       -10.0726    0.5615   52.1314 C.ar    1  ZINC000437192871    0.0000
     26 Cl26      -11.2761    1.8105   52.2014 Cl      1  ZINC000437192871   -0.0300
     27 C27       -13.3022   -4.7233   56.9706 C.2     1  ZINC000437192871    0.0600
     28 N28       -14.3483   -4.9118   57.7335 N.2     1  ZINC000437192871   -0.2900
     29 H29       -16.1643   -2.1941   61.0036 H       1  ZINC000437192871    0.0800
     30 H30       -14.4523   -2.6565   60.8498 H       1  ZINC000437192871    0.0600
     31 H31       -15.1502   -1.4472   59.7458 H       1  ZINC000437192871    0.0700
     32 H32       -15.9339   -4.3941   59.8830 H       1  ZINC000437192871    0.1000
     33 H33       -16.6317   -3.1847   58.7790 H       1  ZINC000437192871    0.0900
     34 H34       -13.6745   -1.7635   58.3170 H       1  ZINC000437192871    0.1600
     35 H35       -11.2419   -2.0371   57.1009 H       1  ZINC000437192871    0.0900
     36 H36       -10.9922   -3.5179   56.1451 H       1  ZINC000437192871    0.0800
     37 H37       -13.0634   -0.3593   54.3612 H       1  ZINC000437192871    0.1000
     38 H38       -13.3651   -0.5644   56.1034 H       1  ZINC000437192871    0.1000
     39 H39       -10.9972   -0.0478   56.5861 H       1  ZINC000437192871    0.0600
     40 H40       -10.6710    0.1243   54.8448 H       1  ZINC000437192871    0.0500
     41 H41       -11.1418    2.2277   55.8750 H       1  ZINC000437192871    0.3800
     42 H42       -15.7210   -2.0065   53.4307 H       1  ZINC000437192871    0.1000
     43 H43       -15.7544   -3.0236   51.9703 H       1  ZINC000437192871    0.0900
     44 H44       -14.8335   -3.5491   53.4001 H       1  ZINC000437192871    0.0900
     45 H45        -9.7779   -2.8050   51.8361 H       1  ZINC000437192871    0.1600
     46 H46        -7.3963   -2.2079   51.9810 H       1  ZINC000437192871    0.1500
     47 H47        -8.4339    1.9179   52.3241 H       1  ZINC000437192871    0.1500
     48 H48       -12.8362   -5.4659   56.3400 H       1  ZINC000437192871    0.1800
@<TRIPOS>BOND
     1     1     2    1
     2     1    29    1
     3     1    30    1
     4     1    31    1
     5     2     3    1
     6     2    32    1
     7     2    33    1
     8     3    28    1
     9     3     4    1
    10     4     5    2
    11     4    34    1
    12     5     6    1
    13     5    27    1
    14     6     7    1
    15     6    35    1
    16     6    36    1
    17     7     8    1
    18     7    11   am
    19     8     9    1
    20     8    37    1
    21     8    38    1
    22     9    10    1
    23     9    39    1
    24     9    40    1
    25    10    41    1
    26    11    12    2
    27    11    13    1
    28    13    18    1
    29    13    14    2
    30    14    15    1
    31    14    16    1
    32    15    42    1
    33    15    43    1
    34    15    44    1
    35    16    17    1
    36    17    18    2
    37    18    19    1
    38    19    25   ar
    39    19    20   ar
    40    20    21   ar
    41    20    45    1
    42    21    22   ar
    43    21    46    1
    44    22    23    1
    45    22    24   ar
    46    24    25   ar
    47    24    47    1
    48    25    26    1
    49    27    28    2
    50    27    48    1
@<TRIPOS>SUBSTRUCTURE
     1 ZINC000437192871        1 TEMP              0 ****  ****    0 ROOT


##########                                Name:    ZINC000542980334
##########                DOCK_Rotatable_Bonds:                   6
##########                         Heavy_Atoms:                  27
##########                    Molecular_Weight:             404.795
##########                DOCK_Rotatable_Bonds:                   6
##########                       Formal_Charge:           0.0300001
##########                     HBond_Acceptors:                  10
##########                        HBond_Donors:                   1
##########                         Heavy_Atoms:                  27
##########                          Grid_Score:          -31.833496
##########                     Grid_vdw_energy:          -31.745804
##########                      Grid_es_energy:           -0.087692
##########           Internal_energy_repulsive:           12.777285

@<TRIPOS>MOLECULE
ZINC000542980334
 44 46 1 0 0
SMALL
USER_CHARGES


@<TRIPOS>ATOM
      1 O1        -11.8039   -3.1338   52.4039 O.2     1  ZINC000542980334   -0.5800
      2 C2        -11.2870   -2.7393   53.4313 C.2     1  ZINC000542980334    0.7100
      3 N3        -10.3217   -1.8001   53.3825 N.am    1  ZINC000542980334   -0.7400
      4 C4         -9.8910   -1.2587   52.0911 C.3     1  ZINC000542980334    0.1800
      5 C5         -8.9445   -0.1083   52.3190 C.ar    1  ZINC000542980334   -0.1400
      6 C6         -9.4316    1.1151   52.7453 C.ar    1  ZINC000542980334    0.1300
      7 F7        -10.7559    1.2787   52.9573 F       1  ZINC000542980334   -0.1200
      8 C8         -8.5608    2.1713   52.9549 C.ar    1  ZINC000542980334   -0.1500
      9 C9         -7.2063    2.0034   52.7385 C.ar    1  ZINC000542980334   -0.0700
     10 C10        -6.7198    0.7815   52.3127 C.ar    1  ZINC000542980334   -0.1200
     11 C11        -7.5877   -0.2762   52.1078 C.ar    1  ZINC000542980334    0.0100
     12 Cl12       -6.9757   -1.8104   51.5737 Cl      1  ZINC000542980334   -0.0400
     13 N13       -11.6832   -3.2374   54.6194 N.am    1  ZINC000542980334   -0.6300
     14 C14       -12.7342   -4.2616   54.6887 C.3     1  ZINC000542980334    0.1100
     15 C15       -13.8262   -3.7832   55.6505 C.3     1  ZINC000542980334   -0.1300
     16 C16       -13.1951   -3.4378   57.0013 C.3     1  ZINC000542980334   -0.1300
     17 C17       -12.1824   -2.3051   56.8184 C.3     1  ZINC000542980334    0.1400
     18 H18       -12.6831   -1.4341   56.3957 H       1  ZINC000542980334    0.1100
     19 N19       -11.6025   -1.9534   58.1169 N.pl3   1  ZINC000542980334   -0.3400
     20 C20       -12.1722   -2.1594   59.3228 C.2     1  ZINC000542980334    0.0600
     21 C21       -11.3196   -1.6966   60.2662 C.2     1  ZINC000542980334   -0.2300
     22 C22       -10.1901   -1.1905   59.6146 C.2     1  ZINC000542980334   -0.0200
     23 C23        -8.9870   -0.5749   60.2813 C.3     1  ZINC000542980334    0.5600
     24 F24        -8.8189   -1.1375   61.5511 F       1  ZINC000542980334   -0.1700
     25 F25        -7.8479   -0.8215   59.5074 F       1  ZINC000542980334   -0.1700
     26 F26        -9.1774    0.8055   60.4043 F       1  ZINC000542980334   -0.1600
     27 N27       -10.3560   -1.3495   58.3265 N.2     1  ZINC000542980334   -0.2300
     28 C28       -11.0678   -2.7709   55.8693 C.3     1  ZINC000542980334    0.1300
     29 H29        -9.9120   -1.4826   54.2024 H       1  ZINC000542980334    0.4000
     30 H30        -9.3851   -2.0379   51.5210 H       1  ZINC000542980334    0.0900
     31 H31       -10.7610   -0.9088   51.5354 H       1  ZINC000542980334    0.0900
     32 H32        -8.9402    3.1263   53.2872 H       1  ZINC000542980334    0.1500
     33 H33        -6.5276    2.8274   52.9018 H       1  ZINC000542980334    0.1500
     34 H34        -5.6612    0.6514   52.1435 H       1  ZINC000542980334    0.1500
     35 H35       -13.1615   -4.4144   53.6975 H       1  ZINC000542980334    0.0800
     36 H36       -12.3097   -5.1968   55.0538 H       1  ZINC000542980334    0.0800
     37 H37       -14.3116   -2.8982   55.2388 H       1  ZINC000542980334    0.0800
     38 H38       -14.5643   -4.5738   55.7853 H       1  ZINC000542980334    0.0900
     39 H39       -13.9735   -3.1205   57.6953 H       1  ZINC000542980334    0.0800
     40 H40       -12.6889   -4.3166   57.4008 H       1  ZINC000542980334    0.0800
     41 H41       -13.1361   -2.6121   59.5027 H       1  ZINC000542980334    0.1900
     42 H42       -11.4826   -1.7143   61.3337 H       1  ZINC000542980334    0.1600
     43 H43       -10.5088   -3.5836   56.3332 H       1  ZINC000542980334    0.0800
     44 H44       -10.3973   -1.9383   55.6566 H       1  ZINC000542980334    0.1100
@<TRIPOS>BOND
     1     1     2    2
     2     2     3   am
     3     2    13   am
     4     3     4    1
     5     3    29    1
     6     4     5    1
     7     4    30    1
     8     4    31    1
     9     5    11   ar
    10     5     6   ar
    11     6     7    1
    12     6     8   ar
    13     8     9   ar
    14     8    32    1
    15     9    10   ar
    16     9    33    1
    17    10    11   ar
    18    10    34    1
    19    11    12    1
    20    13    28    1
    21    13    14    1
    22    14    15    1
    23    14    35    1
    24    14    36    1
    25    15    16    1
    26    15    37    1
    27    15    38    1
    28    16    17    1
    29    16    39    1
    30    16    40    1
    31    17    18    1
    32    17    19    1
    33    17    28    1
    34    19    27    1
    35    19    20    1
    36    20    21    2
    37    20    41    1
    38    21    22    1
    39    21    42    1
    40    22    23    1
    41    22    27    2
    42    23    24    1
    43    23    25    1
    44    23    26    1
    45    28    43    1
    46    28    44    1
@<TRIPOS>SUBSTRUCTURE
     1 ZINC000542980334        1 TEMP              0 ****  ****    0 ROOT


##########                                Name:    ZINC000506156755
##########                DOCK_Rotatable_Bonds:                   7
##########                         Heavy_Atoms:                  30
##########                    Molecular_Weight:             400.434
##########                DOCK_Rotatable_Bonds:                   7
##########                       Formal_Charge:          -0.0200001
##########                     HBond_Acceptors:                   6
##########                        HBond_Donors:                   1
##########                         Heavy_Atoms:                  30
##########                          Grid_Score:          -31.825148
##########                     Grid_vdw_energy:          -31.237467
##########                      Grid_es_energy:           -0.587681
##########           Internal_energy_repulsive:           23.610668

@<TRIPOS>MOLECULE
ZINC000506156755
 50 53 1 0 0
SMALL
USER_CHARGES


@<TRIPOS>ATOM
      1 C1        -13.2457   -0.3963   56.7198 C.3     1  ZINC000506156755   -0.1600
      2 C2        -12.0544   -1.2155   56.2193 C.3     1  ZINC000506156755    0.1900
      3 H3        -11.1865   -1.0160   56.8477 H       1  ZINC000506156755    0.1000
      4 N4        -11.7517   -0.8419   54.8354 N.am    1  ZINC000506156755   -0.7200
      5 C5        -10.9740   -1.6394   54.0768 C.2     1  ZINC000506156755    0.5000
      6 O6        -10.5235   -2.6656   54.5402 O.2     1  ZINC000506156755   -0.5200
      7 C7        -10.6641   -1.2559   52.6527 C.3     1  ZINC000506156755    0.0900
      8 N8         -9.4512   -0.4351   52.6209 N.am    1  ZINC000506156755   -0.5600
      9 C9         -9.4103    0.8746   52.9257 C.2     1  ZINC000506156755    0.5800
     10 O10       -10.3584    1.5533   53.2654 O.2     1  ZINC000506156755   -0.4600
     11 C11        -8.0182    1.3492   52.7786 C.ar    1  ZINC000506156755   -0.1400
     12 C12        -7.3892    2.5712   52.9520 C.ar    1  ZINC000506156755   -0.0400
     13 C13        -6.0261    2.6812   52.7230 C.ar    1  ZINC000506156755   -0.0900
     14 C14        -5.2918    1.5810   52.3233 C.ar    1  ZINC000506156755   -0.0900
     15 C15        -5.9079    0.3516   52.1457 C.ar    1  ZINC000506156755   -0.0400
     16 C16        -7.2691    0.2266   52.3707 C.ar    1  ZINC000506156755   -0.1400
     17 C17        -8.2307   -0.8930   52.2888 C.2     1  ZINC000506156755    0.5800
     18 O18        -7.9639   -2.0348   51.9727 O.2     1  ZINC000506156755   -0.4600
     19 C19       -12.3924   -2.6829   56.2809 C.ar    1  ZINC000506156755   -0.1200
     20 C20       -13.4386   -3.1833   55.5308 C.ar    1  ZINC000506156755   -0.0800
     21 C21       -13.7491   -4.5297   55.5866 C.ar    1  ZINC000506156755   -0.1400
     22 C22       -13.0134   -5.3784   56.3928 C.ar    1  ZINC000506156755   -0.0800
     23 C23       -11.9659   -4.8830   57.1451 C.ar    1  ZINC000506156755   -0.1900
     24 C24       -11.6491   -3.5335   57.0870 C.ar    1  ZINC000506156755    0.1300
     25 O25       -10.6190   -3.0438   57.8256 O.3     1  ZINC000506156755   -0.2500
     26 C26       -10.9024   -2.5193   59.0467 C.ar    1  ZINC000506156755    0.0800
     27 C27        -9.8732   -2.1311   59.8924 C.ar    1  ZINC000506156755   -0.1400
     28 C28       -10.1641   -1.5982   61.1332 C.ar    1  ZINC000506156755   -0.1000
     29 C29       -11.4796   -1.4517   61.5328 C.ar    1  ZINC000506156755   -0.1200
     30 C30       -12.5072   -1.8378   60.6921 C.ar    1  ZINC000506156755   -0.1000
     31 C31       -12.2219   -2.3659   59.4479 C.ar    1  ZINC000506156755   -0.1200
     32 H32       -13.0012    0.6650   56.6752 H       1  ZINC000506156755    0.0700
     33 H33       -14.1136   -0.5959   56.0914 H       1  ZINC000506156755    0.0600
     34 H34       -13.4709   -0.6743   57.7494 H       1  ZINC000506156755    0.0700
     35 H35       -12.1111   -0.0205   54.4651 H       1  ZINC000506156755    0.4000
     36 H36       -10.5087   -2.1570   52.0595 H       1  ZINC000506156755    0.1300
     37 H37       -11.4979   -0.6883   52.2396 H       1  ZINC000506156755    0.1300
     38 H38        -7.9581    3.4346   53.2639 H       1  ZINC000506156755    0.1400
     39 H39        -5.5349    3.6336   52.8576 H       1  ZINC000506156755    0.1400
     40 H40        -4.2308    1.6794   52.1477 H       1  ZINC000506156755    0.1400
     41 H41        -5.3290   -0.5051   51.8336 H       1  ZINC000506156755    0.1400
     42 H42       -14.0151   -2.5224   54.9004 H       1  ZINC000506156755    0.1300
     43 H43       -14.5678   -4.9189   54.9995 H       1  ZINC000506156755    0.1300
     44 H44       -13.2581   -6.4295   56.4348 H       1  ZINC000506156755    0.1300
     45 H45       -11.3918   -5.5463   57.7751 H       1  ZINC000506156755    0.1300
     46 H46        -8.8455   -2.2456   59.5809 H       1  ZINC000506156755    0.1300
     47 H47        -9.3633   -1.2962   61.7919 H       1  ZINC000506156755    0.1300
     48 H48       -11.7050   -1.0352   62.5035 H       1  ZINC000506156755    0.1300
     49 H49       -13.5340   -1.7223   61.0066 H       1  ZINC000506156755    0.1300
     50 H50       -13.0248   -2.6670   58.7915 H       1  ZINC000506156755    0.1300
@<TRIPOS>BOND
     1     1     2    1
     2     1    32    1
     3     1    33    1
     4     1    34    1
     5     2     3    1
     6     2     4    1
     7     2    19    1
     8     4     5   am
     9     4    35    1
    10     5     6    2
    11     5     7    1
    12     7     8    1
    13     7    36    1
    14     7    37    1
    15     8    17   am
    16     8     9   am
    17     9    10    2
    18     9    11    1
    19    11    16   ar
    20    11    12   ar
    21    12    13   ar
    22    12    38    1
    23    13    14   ar
    24    13    39    1
    25    14    15   ar
    26    14    40    1
    27    15    16   ar
    28    15    41    1
    29    16    17    1
    30    17    18    2
    31    19    24   ar
    32    19    20   ar
    33    20    21   ar
    34    20    42    1
    35    21    22   ar
    36    21    43    1
    37    22    23   ar
    38    22    44    1
    39    23    24   ar
    40    23    45    1
    41    24    25    1
    42    25    26    1
    43    26    31   ar
    44    26    27   ar
    45    27    28   ar
    46    27    46    1
    47    28    29   ar
    48    28    47    1
    49    29    30   ar
    50    29    48    1
    51    30    31   ar
    52    30    49    1
    53    31    50    1
@<TRIPOS>SUBSTRUCTURE
     1 ZINC000506156755        1 TEMP              0 ****  ****    0 ROOT


##########                                Name:    ZINC000948289723
##########                DOCK_Rotatable_Bonds:                   6
##########                         Heavy_Atoms:                  24
##########                    Molecular_Weight:             331.415
##########                DOCK_Rotatable_Bonds:                   6
##########                       Formal_Charge:           0.0599999
##########                     HBond_Acceptors:                   6
##########                        HBond_Donors:                   1
##########                         Heavy_Atoms:                  24
##########                          Grid_Score:          -31.824196
##########                     Grid_vdw_energy:          -30.552866
##########                      Grid_es_energy:           -1.271331
##########           Internal_energy_repulsive:            7.703289

@<TRIPOS>MOLECULE
ZINC000948289723
 49 52 1 0 0
SMALL
USER_CHARGES


@<TRIPOS>ATOM
      1 C1          0.3692    4.0614   45.8427 C.3     1  ZINC000948289723   -0.1400
      2 C2          0.1964    2.8754   46.7937 C.3     1  ZINC000948289723   -0.1100
      3 C3          1.0844    2.9559   48.0466 C.3     1  ZINC000948289723   -0.1100
      4 C4         -0.1186    2.4159   48.8379 C.3     1  ZINC000948289723   -0.1400
      5 C5         -0.2998    3.0713   50.1828 C.2     1  ZINC000948289723    0.5400
      6 O6          0.5081    3.8870   50.5737 O.2     1  ZINC000948289723   -0.5300
      7 N7         -1.3596    2.7509   50.9512 N.am    1  ZINC000948289723   -0.6200
      8 C8         -1.6569    3.3110   52.2775 C.3     1  ZINC000948289723    0.1100
      9 C9         -2.9767    2.6726   52.7593 C.3     1  ZINC000948289723   -0.1100
     10 H10        -2.7782    1.8189   53.4073 H       1  ZINC000948289723    0.1000
     11 C11        -3.8467    3.7051   53.4790 C.3     1  ZINC000948289723   -0.1400
     12 C12        -3.6441    2.2136   51.4359 C.3     1  ZINC000948289723    0.1400
     13 H13        -4.1707    3.0392   50.9571 H       1  ZINC000948289723    0.1200
     14 N14        -4.5463    1.0828   51.6673 N.am    1  ZINC000948289723   -0.7100
     15 C15        -5.8703    1.2939   51.8034 C.2     1  ZINC000948289723    0.6100
     16 O16        -6.3164    2.4227   51.7325 O.2     1  ZINC000948289723   -0.5000
     17 C17        -6.7785    0.1555   52.0382 C.2     1  ZINC000948289723   -0.0900
     18 C18        -8.0801    0.2144   52.4560 C.2     1  ZINC000948289723   -0.1400
     19 C19        -8.4770   -1.1400   52.5174 C.2     1  ZINC000948289723    0.0500
     20 C20        -9.8302   -1.6645   52.9233 C.3     1  ZINC000948289723   -0.0900
     21 C21       -11.0517   -0.8108   52.5767 C.3     1  ZINC000948289723   -0.1600
     22 C22       -10.7804   -2.1056   51.8082 C.3     1  ZINC000948289723   -0.1600
     23 N23        -7.4459   -1.8462   52.1548 N.2     1  ZINC000948289723   -0.3300
     24 O24        -6.4959   -1.1513   51.8791 O.3     1  ZINC000948289723    0.1200
     25 C25        -2.4162    1.7852   50.5982 C.3     1  ZINC000948289723    0.0900
     26 C26        -1.0107    3.0127   47.7366 C.3     1  ZINC000948289723   -0.1200
     27 H27         0.5110    4.9739   46.4218 H       1  ZINC000948289723    0.0600
     28 H28         1.2398    3.8946   45.2084 H       1  ZINC000948289723    0.0600
     29 H29        -0.5201    4.1607   45.2203 H       1  ZINC000948289723    0.0600
     30 H30         0.2447    1.9133   46.2836 H       1  ZINC000948289723    0.0900
     31 H31         1.9341    2.2735   48.0240 H       1  ZINC000948289723    0.0700
     32 H32         1.3646    3.9736   48.3185 H       1  ZINC000948289723    0.1000
     33 H33        -0.1546    1.3277   48.8890 H       1  ZINC000948289723    0.1100
     34 H34        -0.8525    3.0678   52.9716 H       1  ZINC000948289723    0.0800
     35 H35        -1.7729    4.3925   52.2057 H       1  ZINC000948289723    0.0800
     36 H36        -4.0581    4.5351   52.8049 H       1  ZINC000948289723    0.0600
     37 H37        -4.7829    3.2398   53.7873 H       1  ZINC000948289723    0.0600
     38 H38        -3.3186    4.0760   54.3575 H       1  ZINC000948289723    0.0700
     39 H39        -4.1905    0.1821   51.7226 H       1  ZINC000948289723    0.4100
     40 H40        -8.6669    1.0914   52.6856 H       1  ZINC000948289723    0.1800
     41 H41        -9.8563   -2.2250   53.8578 H       1  ZINC000948289723    0.1300
     42 H42       -11.8817   -0.8094   53.2833 H       1  ZINC000948289723    0.1100
     43 H43       -10.8765    0.1302   52.0552 H       1  ZINC000948289723    0.1000
     44 H44       -10.4266   -2.0165   50.7810 H       1  ZINC000948289723    0.1000
     45 H45       -11.4318   -2.9561   52.0091 H       1  ZINC000948289723    0.1100
     46 H46        -2.6452    1.8404   49.5339 H       1  ZINC000948289723    0.0900
     47 H47        -2.1060    0.7759   50.8685 H       1  ZINC000948289723    0.0800
     48 H48        -1.3033    4.0459   47.9237 H       1  ZINC000948289723    0.0900
     49 H49        -1.8524    2.3762   47.4638 H       1  ZINC000948289723    0.0800
@<TRIPOS>BOND
     1     1     2    1
     2     1    27    1
     3     1    28    1
     4     1    29    1
     5     2    26    1
     6     2     3    1
     7     2    30    1
     8     3     4    1
     9     3    31    1
    10     3    32    1
    11     4     5    1
    12     4    26    1
    13     4    33    1
    14     5     6    2
    15     5     7   am
    16     7    25    1
    17     7     8    1
    18     8     9    1
    19     8    34    1
    20     8    35    1
    21     9    10    1
    22     9    11    1
    23     9    12    1
    24    11    36    1
    25    11    37    1
    26    11    38    1
    27    12    13    1
    28    12    14    1
    29    12    25    1
    30    14    15   am
    31    14    39    1
    32    15    16    2
    33    15    17    1
    34    17    24    1
    35    17    18    2
    36    18    19    1
    37    18    40    1
    38    19    20    1
    39    19    23    2
    40    20    22    1
    41    20    21    1
    42    20    41    1
    43    21    22    1
    44    21    42    1
    45    21    43    1
    46    22    44    1
    47    22    45    1
    48    23    24    1
    49    25    46    1
    50    25    47    1
    51    26    48    1
    52    26    49    1
@<TRIPOS>SUBSTRUCTURE
     1 ZINC000948289723        1 TEMP              0 ****  ****    0 ROOT


##########                                Name:    ZINC000369046711
##########                DOCK_Rotatable_Bonds:                   8
##########                         Heavy_Atoms:                  26
##########                    Molecular_Weight:             367.467
##########                DOCK_Rotatable_Bonds:                   8
##########                       Formal_Charge:        -7.63685e-07
##########                     HBond_Acceptors:                   8
##########                        HBond_Donors:                   1
##########                         Heavy_Atoms:                  26
##########                          Grid_Score:          -31.811590
##########                     Grid_vdw_energy:          -30.690163
##########                      Grid_es_energy:           -1.121427
##########           Internal_energy_repulsive:           15.549190

@<TRIPOS>MOLECULE
ZINC000369046711
 56 58 1 0 0
SMALL
USER_CHARGES


@<TRIPOS>ATOM
      1 C1         -8.1279    0.4933   64.0438 C.3     1  ZINC000369046711   -0.1800
      2 C2         -9.4457    1.2617   64.1611 C.3     1  ZINC000369046711    0.1400
      3 C3         -9.8412    1.3740   65.6349 C.3     1  ZINC000369046711   -0.1800
      4 C4         -9.2735    2.6628   63.5711 C.3     1  ZINC000369046711   -0.1400
      5 O5        -10.4847    0.5546   63.4338 O.3     1  ZINC000369046711   -0.3700
      6 C6        -10.0840   -0.3440   62.5146 C.2     1  ZINC000369046711    0.6500
      7 O7        -10.0275   -1.5232   62.8022 O.2     1  ZINC000369046711   -0.5700
      8 N8         -9.7456    0.0645   61.2757 N.am    1  ZINC000369046711   -0.7100
      9 C9         -9.3113   -0.9135   60.2751 C.3     1  ZINC000369046711    0.1800
     10 H10        -8.6362   -1.6278   60.7463 H       1  ZINC000369046711    0.0900
     11 C11        -8.5654   -0.1852   59.1576 C.3     1  ZINC000369046711   -0.1300
     12 C12        -9.5371    0.8024   58.5010 C.3     1  ZINC000369046711   -0.1200
     13 C13       -10.6642    0.0076   57.8479 C.3     1  ZINC000369046711   -0.1200
     14 C14       -11.4551   -0.7835   58.8917 C.3     1  ZINC000369046711   -0.1000
     15 H15       -12.1003   -0.1405   59.4902 H       1  ZINC000369046711    0.0900
     16 C16       -12.2560   -1.8619   58.1118 C.3     1  ZINC000369046711    0.0400
     17 N17       -11.4135   -3.0729   58.0649 N.3     1  ZINC000369046711   -0.5200
     18 C18       -11.1424   -3.4723   56.6775 C.3     1  ZINC000369046711    0.1200
     19 C19       -12.3509   -4.1717   56.1108 C.2     1  ZINC000369046711    0.2900
     20 N20       -13.2812   -4.7792   56.8016 N.2     1  ZINC000369046711   -0.5400
     21 C21       -14.1979   -5.2855   55.9777 C.2     1  ZINC000369046711    0.2000
     22 N22       -13.8621   -5.0059   54.7458 N.2     1  ZINC000369046711   -0.3200
     23 N23       -12.6643   -4.2753   54.8076 N.pl3   1  ZINC000369046711   -0.3700
     24 C24       -11.9026   -3.7405   53.6763 C.3     1  ZINC000369046711    0.1000
     25 C25       -12.4035   -2.3337   53.3436 C.3     1  ZINC000369046711    0.0500
     26 F26       -11.9934   -1.9859   52.0520 F       1  ZINC000369046711   -0.2000
     27 C27       -10.1527   -2.7991   58.7950 C.3     1  ZINC000369046711    0.0500
     28 C28       -10.5181   -1.6495   59.7512 C.3     1  ZINC000369046711   -0.1000
     29 H29       -11.0774   -2.0504   60.5965 H       1  ZINC000369046711    0.0900
     30 H30        -8.2506   -0.5048   64.4641 H       1  ZINC000369046711    0.0900
     31 H31        -7.8462    0.4133   62.9939 H       1  ZINC000369046711    0.0600
     32 H32        -7.3481    1.0241   64.5898 H       1  ZINC000369046711    0.0700
     33 H33        -9.0614    1.9048   66.1809 H       1  ZINC000369046711    0.0700
     34 H34       -10.7801    1.9214   65.7184 H       1  ZINC000369046711    0.0600
     35 H35        -9.9639    0.3758   66.0551 H       1  ZINC000369046711    0.0900
     36 H36        -8.9918    2.5828   62.5211 H       1  ZINC000369046711    0.0700
     37 H37       -10.2124    3.2102   63.6547 H       1  ZINC000369046711    0.0700
     38 H38        -8.4937    3.1936   64.1171 H       1  ZINC000369046711    0.0800
     39 H39        -9.7896    1.0060   61.0465 H       1  ZINC000369046711    0.4000
     40 H40        -7.7158    0.3560   59.5739 H       1  ZINC000369046711    0.0700
     41 H41        -8.2167   -0.9056   58.4176 H       1  ZINC000369046711    0.0800
     42 H42        -9.9495    1.4697   59.2578 H       1  ZINC000369046711    0.0600
     43 H43        -9.0124    1.3851   57.7438 H       1  ZINC000369046711    0.0700
     44 H44       -11.3366    0.6954   57.3351 H       1  ZINC000369046711    0.0700
     45 H45       -10.2392   -0.6845   57.1209 H       1  ZINC000369046711    0.0600
     46 H46       -13.1905   -2.0785   58.6294 H       1  ZINC000369046711    0.0800
     47 H47       -12.4627   -1.5129   57.1000 H       1  ZINC000369046711    0.0800
     48 H48       -10.9220   -2.5869   56.0811 H       1  ZINC000369046711    0.0800
     49 H49       -10.2874   -4.1479   56.6544 H       1  ZINC000369046711    0.1000
     50 H50       -15.0757   -5.8379   56.2789 H       1  ZINC000369046711    0.2200
     51 H51       -10.8453   -3.6974   53.9380 H       1  ZINC000369046711    0.1200
     52 H52       -12.0362   -4.3881   52.8098 H       1  ZINC000369046711    0.1100
     53 H53       -13.4919   -2.3134   53.3970 H       1  ZINC000369046711    0.0900
     54 H54       -11.9913   -1.6225   54.0594 H       1  ZINC000369046711    0.0800
     55 H55        -9.8375   -3.6788   59.3561 H       1  ZINC000369046711    0.0900
     56 H56        -9.3710   -2.4856   58.1031 H       1  ZINC000369046711    0.0600
@<TRIPOS>BOND
     1     1     2    1
     2     1    30    1
     3     1    31    1
     4     1    32    1
     5     2     3    1
     6     2     4    1
     7     2     5    1
     8     3    33    1
     9     3    34    1
    10     3    35    1
    11     4    36    1
    12     4    37    1
    13     4    38    1
    14     5     6    1
    15     6     7    2
    16     6     8   am
    17     8     9    1
    18     8    39    1
    19     9    10    1
    20     9    28    1
    21     9    11    1
    22    11    12    1
    23    11    40    1
    24    11    41    1
    25    12    13    1
    26    12    42    1
    27    12    43    1
    28    13    14    1
    29    13    44    1
    30    13    45    1
    31    14    15    1
    32    14    28    1
    33    14    16    1
    34    16    17    1
    35    16    46    1
    36    16    47    1
    37    17    18    1
    38    17    27    1
    39    18    19    1
    40    18    48    1
    41    18    49    1
    42    19    23    1
    43    19    20    2
    44    20    21    1
    45    21    22    2
    46    21    50    1
    47    22    23    1
    48    23    24    1
    49    24    25    1
    50    24    51    1
    51    24    52    1
    52    25    26    1
    53    25    53    1
    54    25    54    1
    55    27    28    1
    56    27    55    1
    57    27    56    1
    58    28    29    1
@<TRIPOS>SUBSTRUCTURE
     1 ZINC000369046711        1 TEMP              0 ****  ****    0 ROOT


##########                                Name:    ZINC000193795672
##########                DOCK_Rotatable_Bonds:                  10
##########                         Heavy_Atoms:                  23
##########                    Molecular_Weight:              332.47
##########                DOCK_Rotatable_Bonds:                  10
##########                       Formal_Charge:        -2.98023e-07
##########                     HBond_Acceptors:                   6
##########                        HBond_Donors:                   3
##########                         Heavy_Atoms:                  23
##########                          Grid_Score:          -31.776451
##########                     Grid_vdw_energy:          -30.823132
##########                      Grid_es_energy:           -0.953319
##########           Internal_energy_repulsive:            7.421363

@<TRIPOS>MOLECULE
ZINC000193795672
 47 48 1 0 0
SMALL
USER_CHARGES


@<TRIPOS>ATOM
      1 C1          1.0283   -0.0359   46.7932 C.3     1  <0>        -0.1000
      2 C2          0.2228    0.6995   47.8332 C.ar    1  <0>        -0.2000
      3 C3          0.8318    1.1683   48.9894 C.ar    1  <0>        -0.0300
      4 C4          0.0565    1.8387   49.9186 C.ar    1  <0>        -0.2400
      5 C5         -1.2990    2.0194   49.6645 C.ar    1  <0>         0.4000
      6 N6         -2.0897    2.6912   50.5896 N.pl3   1  <0>        -0.7300
      7 C7         -1.9986    2.3548   52.0125 C.3     1  <0>         0.1300
      8 C8         -3.2810    2.7924   52.7231 C.3     1  <0>        -0.1400
      9 C9         -4.4643    1.9884   52.1806 C.3     1  <0>         0.1400
     10 N10        -5.6694    2.3158   52.9466 N.am    1  <0>        -0.7500
     11 C11        -6.6714    1.4195   53.0423 C.2     1  <0>         0.7100
     12 O12        -6.5744    0.3385   52.4942 O.2     1  <0>        -0.5900
     13 N13        -7.7807    1.7213   53.7457 N.am    1  <0>        -0.7400
     14 C14        -8.8705    0.7477   53.8482 C.3     1  <0>         0.1700
     15 H15        -8.4625   -0.2615   53.7934 H       1  <0>         0.0900
     16 C16        -9.5959    0.9329   55.1826 C.3     1  <0>        -0.1700
     17 C17        -9.8562    0.9625   52.6978 C.3     1  <0>        -0.0600
     18 C18       -10.5593   -0.3344   52.3901 C.2     1  <0>        -0.1700
     19 C19       -11.8308   -0.4467   52.0030 C.2     1  <0>        -0.1400
     20 C20       -12.2592   -1.7434   51.7766 C.2     1  <0>        -0.1300
     21 C21       -11.3356   -2.6841   51.9798 C.2     1  <0>        -0.2100
     22 S22        -9.8266   -1.9309   52.4791 S.3     1  <0>         0.0900
     23 N23        -1.8429    1.5574   48.5490 N.ar    1  <0>        -0.5400
     24 C24        -1.1270    0.9188   47.6431 C.ar    1  <0>         0.1500
     25 H25         1.4329    0.6777   46.0755 H       1  <0>         0.0700
     26 H26         1.8471   -0.5683   47.2772 H       1  <0>         0.0600
     27 H27         0.3874   -0.7490   46.2746 H       1  <0>         0.0700
     28 H28         1.8869    1.0128   49.1599 H       1  <0>         0.1300
     29 H29         0.4978    2.2164   50.8292 H       1  <0>         0.1300
     30 H30        -2.7017    3.3829   50.2929 H       1  <0>         0.4000
     31 H31        -1.8709    1.2781   52.1238 H       1  <0>         0.0700
     32 H32        -1.1451    2.8696   52.4537 H       1  <0>         0.0700
     33 H33        -3.1817    2.6149   53.7939 H       1  <0>         0.0800
     34 H34        -3.4510    3.8542   52.5449 H       1  <0>         0.0800
     35 H35        -4.6221    2.2372   51.1312 H       1  <0>         0.0700
     36 H36        -4.2530    0.9231   52.2736 H       1  <0>         0.0700
     37 H37        -5.7463    3.1778   53.3849 H       1  <0>         0.4000
     38 H38        -7.8575    2.5833   54.1839 H       1  <0>         0.3900
     39 H39       -10.0040    1.9421   55.2373 H       1  <0>         0.0600
     40 H40       -10.4068    0.2085   55.2588 H       1  <0>         0.0700
     41 H41        -8.8938    0.7798   56.0021 H       1  <0>         0.0700
     42 H42       -10.5907    1.7150   52.9845 H       1  <0>         0.1000
     43 H43        -9.3151    1.3010   51.8142 H       1  <0>         0.0800
     44 H44       -12.4772    0.4091   51.8761 H       1  <0>         0.1400
     45 H45       -13.2652   -1.9759   51.4596 H       1  <0>         0.1400
     46 H46       -11.4897   -3.7455   51.8535 H       1  <0>         0.1600
     47 H47        -1.6047    0.5559   46.7451 H       1  <0>         0.1500
@<TRIPOS>BOND
     1     1     2    1
     2     1    25    1
     3     1    26    1
     4     1    27    1
     5     2    24   ar
     6     2     3   ar
     7     3     4   ar
     8     3    28    1
     9     4     5   ar
    10     4    29    1
    11     5     6    1
    12     5    23   ar
    13     6     7    1
    14     6    30    1
    15     7     8    1
    16     7    31    1
    17     7    32    1
    18     8     9    1
    19     8    33    1
    20     8    34    1
    21     9    10    1
    22     9    35    1
    23     9    36    1
    24    10    11   am
    25    10    37    1
    26    11    12    2
    27    11    13   am
    28    13    14    1
    29    13    38    1
    30    14    15    1
    31    14    16    1
    32    14    17    1
    33    16    39    1
    34    16    40    1
    35    16    41    1
    36    17    18    1
    37    17    42    1
    38    17    43    1
    39    18    22    1
    40    18    19    2
    41    19    20    1
    42    19    44    1
    43    20    21    2
    44    20    45    1
    45    21    22    1
    46    21    46    1
    47    23    24   ar
    48    24    47    1
@<TRIPOS>SUBSTRUCTURE
     1 <0>         1 TEMP              0 ****  ****    0 ROOT


##########                                Name:    ZINC000440379747
##########                DOCK_Rotatable_Bonds:                   8
##########                         Heavy_Atoms:                  27
##########                    Molecular_Weight:             394.452
##########                DOCK_Rotatable_Bonds:                   8
##########                       Formal_Charge:           0.0199995
##########                     HBond_Acceptors:                  10
##########                        HBond_Donors:                   3
##########                         Heavy_Atoms:                  27
##########                          Grid_Score:          -31.739761
##########                     Grid_vdw_energy:          -30.476332
##########                      Grid_es_energy:           -1.263429
##########           Internal_energy_repulsive:           23.551992

@<TRIPOS>MOLECULE
ZINC000440379747
 49 51 1 0 0
SMALL
USER_CHARGES


@<TRIPOS>ATOM
      1 C1         -4.3993    2.7193   52.5626 C.3     1  ZINC000440379747   -0.1800
      2 C2         -5.5103    1.7253   52.3416 C.2     1  ZINC000440379747    0.5200
      3 O3         -5.3837    0.8487   51.5127 O.2     1  ZINC000440379747   -0.5200
      4 N4         -6.6444    1.8103   53.0647 N.am    1  ZINC000440379747   -0.5500
      5 C5         -6.9127    2.8215   54.0907 C.3     1  ZINC000440379747    0.1100
      6 C6         -8.3203    2.4984   54.6175 C.3     1  ZINC000440379747   -0.0900
      7 C7         -8.7565    1.2881   53.8228 C.ar    1  ZINC000440379747   -0.1100
      8 C8         -9.9262    0.5557   53.8601 C.ar    1  ZINC000440379747   -0.0700
      9 C9        -10.0929   -0.5342   53.0150 C.ar    1  ZINC000440379747    0.1200
     10 N10       -11.2771   -1.2768   53.0513 N.am    1  ZINC000440379747   -0.6400
     11 C11       -11.3351   -2.4184   53.7654 C.2     1  ZINC000440379747    0.5100
     12 O12       -10.3592   -2.8019   54.3769 O.2     1  ZINC000440379747   -0.4900
     13 C13       -12.5998   -3.2115   53.8040 C.2     1  ZINC000440379747    0.5200
     14 O14       -13.2645   -3.3433   52.7972 O.2     1  ZINC000440379747   -0.5100
     15 N15       -13.0032   -3.7808   54.9571 N.am    1  ZINC000440379747   -0.5800
     16 C16       -14.2250   -4.5863   55.1363 C.3     1  ZINC000440379747    0.1000
     17 C17       -13.9309   -5.4852   56.3631 C.3     1  ZINC000440379747   -0.1300
     18 C18       -13.1130   -4.5235   57.2651 C.3     1  ZINC000440379747   -0.1600
     19 C19       -12.2945   -3.7068   56.2431 C.3     1  ZINC000440379747    0.1500
     20 H20       -11.2947   -4.1300   56.1458 H       1  ZINC000440379747    0.1000
     21 C21       -12.2002   -2.2489   56.6978 C.3     1  ZINC000440379747   -0.6500
     22 S22       -11.2987   -2.1630   58.2696 S.o2    1  ZINC000440379747    2.6200
     23 N23       -11.2261   -0.5453   58.6163 N.am    1  ZINC000440379747   -1.2500
     24 O24       -12.0789   -2.7124   59.3226 O.2     1  ZINC000440379747   -0.9500
     25 O25        -9.9418   -2.5436   58.0877 O.2     1  ZINC000440379747   -0.9500
     26 C26        -9.0773   -0.8824   52.1334 C.ar    1  ZINC000440379747   -0.1000
     27 C27        -7.9108   -0.1501   52.0977 C.ar    1  ZINC000440379747   -0.1400
     28 C28        -7.7411    0.9495   52.9414 C.ar    1  ZINC000440379747    0.1400
     29 H29        -3.5704    2.4928   51.8921 H       1  ZINC000440379747    0.1000
     30 H30        -4.7663    3.7254   52.3597 H       1  ZINC000440379747    0.1000
     31 H31        -4.0579    2.6586   53.5959 H       1  ZINC000440379747    0.1000
     32 H32        -6.1814    2.7466   54.8956 H       1  ZINC000440379747    0.0900
     33 H33        -6.8928    3.8193   53.6525 H       1  ZINC000440379747    0.0900
     34 H34        -8.2831    2.2617   55.6809 H       1  ZINC000440379747    0.0900
     35 H35        -8.9950    3.3352   54.4368 H       1  ZINC000440379747    0.1000
     36 H36       -10.7126    0.8303   54.5475 H       1  ZINC000440379747    0.1400
     37 H37       -12.0569   -0.9704   52.5624 H       1  ZINC000440379747    0.4200
     38 H38       -15.0796   -3.9398   55.3358 H       1  ZINC000440379747    0.0800
     39 H39       -14.4090   -5.1980   54.2531 H       1  ZINC000440379747    0.1000
     40 H40       -14.8548   -5.7904   56.8543 H       1  ZINC000440379747    0.1000
     41 H41       -13.3366   -6.3534   56.0779 H       1  ZINC000440379747    0.0800
     42 H42       -13.7757   -3.8762   57.8393 H       1  ZINC000440379747    0.1000
     43 H43       -12.4514   -5.0837   57.9260 H       1  ZINC000440379747    0.1000
     44 H44       -11.6715   -1.6665   55.9434 H       1  ZINC000440379747    0.1500
     45 H45       -13.2035   -1.8446   56.8318 H       1  ZINC000440379747    0.1400
     46 H46       -12.0440   -0.0362   58.7289 H       1  ZINC000440379747    0.4100
     47 H47       -10.3656   -0.1068   58.7066 H       1  ZINC000440379747    0.4200
     48 H48        -9.2023   -1.7292   51.4748 H       1  ZINC000440379747    0.1400
     49 H49        -7.1247   -0.4258   51.4105 H       1  ZINC000440379747    0.1500
@<TRIPOS>BOND
     1     1     2    1
     2     1    29    1
     3     1    30    1
     4     1    31    1
     5     2     3    2
     6     2     4   am
     7     4    28    1
     8     4     5    1
     9     5     6    1
    10     5    32    1
    11     5    33    1
    12     6     7    1
    13     6    34    1
    14     6    35    1
    15     7    28   ar
    16     7     8   ar
    17     8     9   ar
    18     8    36    1
    19     9    10    1
    20     9    26   ar
    21    10    11   am
    22    10    37    1
    23    11    12    2
    24    11    13    1
    25    13    14    2
    26    13    15   am
    27    15    19    1
    28    15    16    1
    29    16    17    1
    30    16    38    1
    31    16    39    1
    32    17    18    1
    33    17    40    1
    34    17    41    1
    35    18    19    1
    36    18    42    1
    37    18    43    1
    38    19    20    1
    39    19    21    1
    40    21    22    1
    41    21    44    1
    42    21    45    1
    43    22    23   am
    44    22    24    2
    45    22    25    2
    46    23    46    1
    47    23    47    1
    48    26    27   ar
    49    26    48    1
    50    27    28   ar
    51    27    49    1
@<TRIPOS>SUBSTRUCTURE
     1 ZINC000440379747        1 TEMP              0 ****  ****    0 ROOT


##########                                Name:    ZINC000572148596
##########                DOCK_Rotatable_Bonds:                   4
##########                         Heavy_Atoms:                  26
##########                    Molecular_Weight:             371.463
##########                DOCK_Rotatable_Bonds:                   4
##########                       Formal_Charge:          -0.0199999
##########                     HBond_Acceptors:                   8
##########                        HBond_Donors:                   0
##########                         Heavy_Atoms:                  26
##########                          Grid_Score:          -31.722952
##########                     Grid_vdw_energy:          -31.225058
##########                      Grid_es_energy:           -0.497894
##########           Internal_energy_repulsive:            6.164511

@<TRIPOS>MOLECULE
ZINC000572148596
 47 50 1 0 0
SMALL
USER_CHARGES


@<TRIPOS>ATOM
      1 C1          0.1482    2.5672   51.2901 C.3     1  ZINC000572148596   -0.1400
      2 C2         -0.9442    1.8125   50.5298 C.3     1  ZINC000572148596    0.0800
      3 H3         -0.7842    0.7393   50.6340 H       1  ZINC000572148596    0.1200
      4 C4         -2.2929    2.1765   51.0952 C.2     1  ZINC000572148596    0.1800
      5 N5         -2.6430    3.3411   51.5561 N.2     1  ZINC000572148596   -0.3500
      6 O6         -3.7933    3.3177   51.9399 O.3     1  ZINC000572148596    0.0900
      7 C7         -4.3072    2.0917   51.7543 C.2     1  ZINC000572148596    0.2300
      8 C8         -5.6754    1.6491   52.0880 C.ar    1  ZINC000572148596   -0.1200
      9 C9         -6.6437    2.5780   52.4961 C.ar    1  ZINC000572148596   -0.0100
     10 C10        -7.9002    2.1228   52.7958 C.ar    1  ZINC000572148596   -0.1900
     11 C11        -8.1781    0.7622   52.6878 C.ar    1  ZINC000572148596    0.3400
     12 N12        -9.4491    0.2981   52.9900 N.3     1  ZINC000572148596   -0.4700
     13 C13        -9.6705    0.2768   54.4432 C.3     1  ZINC000572148596    0.0300
     14 C14       -11.1023   -0.1839   54.7292 C.3     1  ZINC000572148596    0.0900
     15 H15       -11.2532   -0.2559   55.8063 H       1  ZINC000572148596    0.1100
     16 C16       -12.0908    0.8252   54.1412 C.3     1  ZINC000572148596   -0.1800
     17 O17       -11.3139   -1.4653   54.1305 O.3     1  ZINC000572148596   -0.3700
     18 C18       -11.1074   -1.4809   52.7154 C.3     1  ZINC000572148596    0.0800
     19 H19       -11.8117   -0.8001   52.2374 H       1  ZINC000572148596    0.0700
     20 C20       -11.3256   -2.8985   52.1829 C.3     1  ZINC000572148596   -0.1400
     21 C21        -9.6757   -1.0333   52.4091 C.3     1  ZINC000572148596    0.0300
     22 N22        -7.2443   -0.0951   52.2996 N.ar    1  ZINC000572148596   -0.5200
     23 C23        -6.0255    0.3014   51.9964 C.ar    1  ZINC000572148596    0.1900
     24 N24        -3.3512    1.3594   51.2086 N.2     1  ZINC000572148596   -0.4700
     25 C25        -0.8927    2.1886   49.0714 C.2     1  ZINC000572148596    0.0400
     26 N26        -1.3471    1.4640   48.1054 N.2     1  ZINC000572148596   -0.4500
     27 C27        -1.2222    1.9435   46.8843 C.2     1  ZINC000572148596    0.0400
     28 C28        -0.6293    3.1394   46.8166 C.2     1  ZINC000572148596   -0.2500
     29 S29        -0.2303    3.6405   48.4580 S.3     1  ZINC000572148596    0.1400
     30 H30        -0.0117    3.6403   51.1858 H       1  ZINC000572148596    0.0800
     31 H31         0.1109    2.2951   52.3449 H       1  ZINC000572148596    0.0700
     32 H32         1.1236    2.3038   50.8812 H       1  ZINC000572148596    0.0800
     33 H33        -6.4040    3.6282   52.5725 H       1  ZINC000572148596    0.1500
     34 H34        -8.6683    2.8124   53.1134 H       1  ZINC000572148596    0.1500
     35 H35        -8.9664   -0.4129   54.9087 H       1  ZINC000572148596    0.0600
     36 H36        -9.5225    1.2778   54.8486 H       1  ZINC000572148596    0.1000
     37 H37       -11.9404    0.8956   53.0639 H       1  ZINC000572148596    0.0700
     38 H38       -13.1099    0.4966   54.3451 H       1  ZINC000572148596    0.0600
     39 H39       -11.9261    1.8022   54.5957 H       1  ZINC000572148596    0.0700
     40 H40       -12.3440   -3.2173   52.4046 H       1  ZINC000572148596    0.0700
     41 H41       -11.1680   -2.9097   51.1044 H       1  ZINC000572148596    0.0700
     42 H42       -10.6199   -3.5785   52.6602 H       1  ZINC000572148596    0.0600
     43 H43        -9.5315   -0.9887   51.3296 H       1  ZINC000572148596    0.1000
     44 H44        -8.9717   -1.7440   52.8421 H       1  ZINC000572148596    0.0600
     45 H45        -5.2885   -0.4234   51.6835 H       1  ZINC000572148596    0.1700
     46 H46        -1.5700    1.4136   46.0100 H       1  ZINC000572148596    0.1800
     47 H47        -0.4329    3.7011   45.9153 H       1  ZINC000572148596    0.1800
@<TRIPOS>BOND
     1     1     2    1
     2     1    30    1
     3     1    31    1
     4     1    32    1
     5     2     3    1
     6     2     4    1
     7     2    25    1
     8     4    24    1
     9     4     5    2
    10     5     6    1
    11     6     7    1
    12     7     8    1
    13     7    24    2
    14     8    23   ar
    15     8     9   ar
    16     9    10   ar
    17     9    33    1
    18    10    11   ar
    19    10    34    1
    20    11    12    1
    21    11    22   ar
    22    12    21    1
    23    12    13    1
    24    13    14    1
    25    13    35    1
    26    13    36    1
    27    14    15    1
    28    14    16    1
    29    14    17    1
    30    16    37    1
    31    16    38    1
    32    16    39    1
    33    17    18    1
    34    18    19    1
    35    18    20    1
    36    18    21    1
    37    20    40    1
    38    20    41    1
    39    20    42    1
    40    21    43    1
    41    21    44    1
    42    22    23   ar
    43    23    45    1
    44    25    29    1
    45    25    26    2
    46    26    27    1
    47    27    28    2
    48    27    46    1
    49    28    29    1
    50    28    47    1
@<TRIPOS>SUBSTRUCTURE
     1 ZINC000572148596        1 TEMP              0 ****  ****    0 ROOT


##########                                Name:    ZINC000489403631
##########                DOCK_Rotatable_Bonds:                   7
##########                         Heavy_Atoms:                  28
##########                    Molecular_Weight:             381.391
##########                DOCK_Rotatable_Bonds:                   7
##########                       Formal_Charge:          -0.0300003
##########                     HBond_Acceptors:                   9
##########                        HBond_Donors:                   1
##########                         Heavy_Atoms:                  28
##########                          Grid_Score:          -31.704714
##########                     Grid_vdw_energy:          -28.954239
##########                      Grid_es_energy:           -2.750475
##########           Internal_energy_repulsive:           16.712759

@<TRIPOS>MOLECULE
ZINC000489403631
 47 49 1 0 0
SMALL
USER_CHARGES


@<TRIPOS>ATOM
      1 C1         -8.7759   -1.4769   59.6462 C.3     1  ZINC000489403631   -0.1100
      2 C2         -9.3274   -0.4997   58.6403 C.ar    1  ZINC000489403631   -0.0800
      3 C3         -8.4878    0.4111   58.0309 C.ar    1  ZINC000489403631   -0.0900
      4 C4         -8.9962    1.3117   57.1039 C.ar    1  ZINC000489403631    0.1200
      5 N5         -8.1445    2.2358   56.4848 N.am    1  ZINC000489403631   -0.6600
      6 C6         -8.0113    2.2362   55.1437 C.2     1  ZINC000489403631    0.5100
      7 O7         -8.6287    1.4363   54.4726 O.2     1  ZINC000489403631   -0.4600
      8 C8         -7.0951    3.2303   54.4778 C.3     1  ZINC000489403631    0.1700
      9 C9         -7.9304    4.2859   53.7503 C.3     1  ZINC000489403631   -0.1700
     10 C10        -6.2241    3.9098   55.5363 C.3     1  ZINC000489403631   -0.1700
     11 N11        -6.2387    2.5355   53.5134 N.pl3   1  ZINC000489403631   -0.3400
     12 C12        -5.0028    2.9177   53.1294 C.2     1  ZINC000489403631    0.1500
     13 C13        -4.5522    2.0130   52.2297 C.2     1  ZINC000489403631   -0.1900
     14 N14        -3.2385    2.0425   51.5484 N.pl3   1  ZINC000489403631    0.0700
     15 O15        -2.9347    1.1541   50.7725 O.2     1  ZINC000489403631   -0.1700
     16 O16        -2.4612    2.9552   51.7638 O.2     1  ZINC000489403631   -0.1600
     17 C17        -5.5468    1.0447   52.0578 C.2     1  ZINC000489403631    0.1000
     18 N18        -6.5558    1.3536   52.8314 N.2     1  ZINC000489403631   -0.2200
     19 C19       -10.3486    1.2954   56.7906 C.ar    1  ZINC000489403631   -0.1100
     20 C20       -11.1875    0.3838   57.4009 C.ar    1  ZINC000489403631   -0.1700
     21 C21       -10.6781   -0.5192   58.3226 C.ar    1  ZINC000489403631    0.1000
     22 O22       -11.5045   -1.4164   58.9231 O.3     1  ZINC000489403631   -0.2500
     23 C23       -12.0483   -2.3946   58.1556 C.ar    1  ZINC000489403631    0.1400
     24 C24       -11.3951   -2.8529   57.0138 C.ar    1  ZINC000489403631   -0.2000
     25 C25       -11.9810   -3.8489   56.2601 C.ar    1  ZINC000489403631    0.1200
     26 N26       -13.1441   -4.3657   56.6091 N.ar    1  ZINC000489403631   -0.4900
     27 C27       -13.7933   -3.9582   57.6834 C.ar    1  ZINC000489403631    0.1200
     28 C28       -13.2712   -2.9702   58.4926 C.ar    1  ZINC000489403631   -0.1800
     29 H29        -8.4556   -2.3840   59.1337 H       1  ZINC000489403631    0.0700
     30 H30        -7.9244   -1.0291   60.1586 H       1  ZINC000489403631    0.0700
     31 H31        -9.5488   -1.7244   60.3739 H       1  ZINC000489403631    0.0700
     32 H32        -7.4358    0.4236   58.2753 H       1  ZINC000489403631    0.1500
     33 H33        -7.6508    2.8754   57.0215 H       1  ZINC000489403631    0.4100
     34 H34        -8.5675    4.8029   54.4679 H       1  ZINC000489403631    0.1000
     35 H35        -7.2677    5.0049   53.2687 H       1  ZINC000489403631    0.0900
     36 H36        -8.5509    3.8017   52.9962 H       1  ZINC000489403631    0.0800
     37 H37        -5.6291    3.1579   56.0546 H       1  ZINC000489403631    0.0800
     38 H38        -5.5615    4.6289   55.0547 H       1  ZINC000489403631    0.0900
     39 H39        -6.8613    4.4268   56.2539 H       1  ZINC000489403631    0.0900
     40 H40        -4.4691    3.7896   53.4776 H       1  ZINC000489403631    0.2000
     41 H41        -5.4898    0.1875   51.4035 H       1  ZINC000489403631    0.2100
     42 H42       -10.7446    1.9957   56.0701 H       1  ZINC000489403631    0.1300
     43 H43       -12.2396    0.3711   57.1573 H       1  ZINC000489403631    0.1300
     44 H44       -10.4433   -2.4340   56.7224 H       1  ZINC000489403631    0.1400
     45 H45       -11.4818   -4.2100   55.3730 H       1  ZINC000489403631    0.1600
     46 H46       -14.7432   -4.4066   57.9345 H       1  ZINC000489403631    0.1700
     47 H47       -13.8074   -2.6415   59.3706 H       1  ZINC000489403631    0.1500
@<TRIPOS>BOND
     1     1     2    1
     2     1    29    1
     3     1    30    1
     4     1    31    1
     5     2    21   ar
     6     2     3   ar
     7     3     4   ar
     8     3    32    1
     9     4     5    1
    10     4    19   ar
    11     5     6   am
    12     5    33    1
    13     6     7    2
    14     6     8    1
    15     8     9    1
    16     8    10    1
    17     8    11    1
    18     9    34    1
    19     9    35    1
    20     9    36    1
    21    10    37    1
    22    10    38    1
    23    10    39    1
    24    11    18    1
    25    11    12    1
    26    12    13    2
    27    12    40    1
    28    13    14    1
    29    13    17    1
    30    14    15    2
    31    14    16    2
    32    17    18    2
    33    17    41    1
    34    19    20   ar
    35    19    42    1
    36    20    21   ar
    37    20    43    1
    38    21    22    1
    39    22    23    1
    40    23    28   ar
    41    23    24   ar
    42    24    25   ar
    43    24    44    1
    44    25    26   ar
    45    25    45    1
    46    26    27   ar
    47    27    28   ar
    48    27    46    1
    49    28    47    1
@<TRIPOS>SUBSTRUCTURE
     1 ZINC000489403631        1 TEMP              0 ****  ****    0 ROOT


##########                                Name:    ZINC000740843182
##########                DOCK_Rotatable_Bonds:                  10
##########                         Heavy_Atoms:                  24
##########                    Molecular_Weight:              419.34
##########                DOCK_Rotatable_Bonds:                  10
##########                       Formal_Charge:          0.00999957
##########                     HBond_Acceptors:                   7
##########                        HBond_Donors:                   3
##########                         Heavy_Atoms:                  24
##########                          Grid_Score:          -31.701988
##########                     Grid_vdw_energy:          -30.896772
##########                      Grid_es_energy:           -0.805215
##########           Internal_energy_repulsive:           12.392743

@<TRIPOS>MOLECULE
ZINC000740843182
 47 48 1 0 0
SMALL
USER_CHARGES


@<TRIPOS>ATOM
      1 C1        -13.3381   -2.8865   53.1953 C.3     1  ZINC000740843182   -0.1500
      2 C2        -12.4323   -3.9320   53.8492 C.3     1  ZINC000740843182   -0.1000
      3 H3        -12.8391   -4.9275   53.6712 H       1  ZINC000740843182    0.0900
      4 C4        -11.0290   -3.8393   53.2468 C.3     1  ZINC000740843182    0.1200
      5 N5        -10.3634   -2.6322   53.7428 N.am    1  ZINC000740843182   -0.7200
      6 C6        -10.0199   -1.6512   52.8849 C.2     1  ZINC000740843182    0.5500
      7 O7        -10.2611   -1.7685   51.6992 O.2     1  ZINC000740843182   -0.5000
      8 C8         -9.3499   -0.4327   53.3856 C.ar    1  ZINC000740843182   -0.1300
      9 C9        -10.0116    0.4165   54.2739 C.ar    1  ZINC000740843182    0.0200
     10 C10        -9.3803    1.5519   54.7379 C.ar    1  ZINC000740843182   -0.6800
     11 S11       -10.2144    2.6249   55.8595 S.o2    1  ZINC000740843182    2.7000
     12 O12        -9.3042    3.6725   56.1646 O.2     1  ZINC000740843182   -0.9400
     13 O13       -11.5058    2.8522   55.3120 O.2     1  ZINC000740843182   -0.9500
     14 N14       -10.4445    1.7811   57.2657 N.am    1  ZINC000740843182   -1.0900
     15 C15        -9.2915    1.2639   58.0067 C.3     1  ZINC000740843182    0.0800
     16 C16        -9.3811    1.2511   59.5340 C.3     1  ZINC000740843182   -0.1800
     17 C17        -9.4669   -0.0610   58.7516 C.3     1  ZINC000740843182   -0.1900
     18 C18        -8.0938    1.8503   54.3252 C.ar    1  ZINC000740843182    0.0100
     19 C19        -7.4314    1.0138   53.4450 C.ar    1  ZINC000740843182   -0.1200
     20 C20        -8.0492   -0.1286   52.9763 C.ar    1  ZINC000740843182    0.0100
     21 Br21       -7.1425   -1.2713   51.7730 Br      1  ZINC000740843182    0.0100
     22 C22       -12.3590   -3.6728   55.3553 C.3     1  ZINC000740843182   -0.1400
     23 C23       -13.4926   -4.4227   56.0577 C.3     1  ZINC000740843182    0.1000
     24 H24       -14.4130   -4.3094   55.4848 H       1  ZINC000740843182    0.1000
     25 C25       -13.6916   -3.8477   57.4615 C.3     1  ZINC000740843182   -0.1900
     26 O26       -13.1590   -5.8089   56.1536 O.3     1  ZINC000740843182   -0.5600
     27 H27       -14.3379   -2.9526   53.6243 H       1  ZINC000740843182    0.0600
     28 H28       -12.9313   -1.8911   53.3732 H       1  ZINC000740843182    0.0600
     29 H29       -13.3903   -3.0712   52.1223 H       1  ZINC000740843182    0.0500
     30 H30       -10.4511   -4.7174   53.5349 H       1  ZINC000740843182    0.0700
     31 H31       -11.1025   -3.7931   52.1602 H       1  ZINC000740843182    0.0700
     32 H32       -10.1698   -2.5391   54.6887 H       1  ZINC000740843182    0.4000
     33 H33       -11.0158    0.1852   54.5972 H       1  ZINC000740843182    0.1500
     34 H34       -11.3428    1.6293   57.5987 H       1  ZINC000740843182    0.4200
     35 H35        -8.3174    1.4655   57.5610 H       1  ZINC000740843182    0.1400
     36 H36        -8.4659    1.4446   60.0935 H       1  ZINC000740843182    0.1100
     37 H37       -10.2980    1.6275   59.9875 H       1  ZINC000740843182    0.1000
     38 H38       -10.4403   -0.5477   58.6905 H       1  ZINC000740843182    0.1000
     39 H39        -8.6081   -0.7307   58.7964 H       1  ZINC000740843182    0.1100
     40 H40        -7.6047    2.7406   54.6918 H       1  ZINC000740843182    0.1600
     41 H41        -6.4273    1.2525   53.1268 H       1  ZINC000740843182    0.1500
     42 H42       -11.4001   -4.0226   55.7379 H       1  ZINC000740843182    0.0700
     43 H43       -12.4580   -2.6040   55.5452 H       1  ZINC000740843182    0.0800
     44 H44       -13.9461   -2.7904   57.3882 H       1  ZINC000740843182    0.0700
     45 H45       -14.4992   -4.3820   57.9619 H       1  ZINC000740843182    0.0600
     46 H46       -12.7713   -3.9610   58.0344 H       1  ZINC000740843182    0.0600
     47 H47       -13.8347   -6.3469   56.5885 H       1  ZINC000740843182    0.3700
@<TRIPOS>BOND
     1     1     2    1
     2     1    27    1
     3     1    28    1
     4     1    29    1
     5     2     3    1
     6     2     4    1
     7     2    22    1
     8     4     5    1
     9     4    30    1
    10     4    31    1
    11     5     6   am
    12     5    32    1
    13     6     7    2
    14     6     8    1
    15     8    20   ar
    16     8     9   ar
    17     9    10   ar
    18     9    33    1
    19    10    11    1
    20    10    18   ar
    21    11    12    2
    22    11    13    2
    23    11    14   am
    24    14    15    1
    25    14    34    1
    26    15    17    1
    27    15    16    1
    28    15    35    1
    29    16    17    1
    30    16    36    1
    31    16    37    1
    32    17    38    1
    33    17    39    1
    34    18    19   ar
    35    18    40    1
    36    19    20   ar
    37    19    41    1
    38    20    21    1
    39    22    23    1
    40    22    42    1
    41    22    43    1
    42    23    24    1
    43    23    25    1
    44    23    26    1
    45    25    44    1
    46    25    45    1
    47    25    46    1
    48    26    47    1
@<TRIPOS>SUBSTRUCTURE
     1 ZINC000740843182        1 TEMP              0 ****  ****    0 ROOT


##########                                Name:    ZINC000469435497
##########                DOCK_Rotatable_Bonds:                   6
##########                         Heavy_Atoms:                  27
##########                    Molecular_Weight:             364.444
##########                DOCK_Rotatable_Bonds:                   6
##########                       Formal_Charge:           0.0300001
##########                     HBond_Acceptors:                   5
##########                        HBond_Donors:                   2
##########                         Heavy_Atoms:                  27
##########                          Grid_Score:          -31.695574
##########                     Grid_vdw_energy:          -31.101471
##########                      Grid_es_energy:           -0.594102
##########           Internal_energy_repulsive:            3.780770

@<TRIPOS>MOLECULE
ZINC000469435497
 51 54 1 0 0
SMALL
USER_CHARGES


@<TRIPOS>ATOM
      1 C1          2.6801   -0.1879   45.9375 C.3     1  ZINC000469435497   -0.1600
      2 C2          3.4949    0.7880   46.7886 C.3     1  ZINC000469435497    0.1000
      3 C3          4.8002    1.1603   46.0827 C.3     1  ZINC000469435497   -0.1400
      4 C4          2.6657    2.0517   47.1183 C.3     1  ZINC000469435497   -0.1000
      5 C5          2.0531    1.6847   48.4562 C.ar    1  ZINC000469435497   -0.1500
      6 C6          1.0107    2.2265   49.1736 C.ar    1  ZINC000469435497   -0.0700
      7 C7          0.6492    1.6735   50.3962 C.ar    1  ZINC000469435497    0.1100
      8 N8         -0.4111    2.2203   51.1309 N.am    1  ZINC000469435497   -0.6600
      9 C9         -1.6752    1.8201   50.8894 C.2     1  ZINC000469435497    0.5100
     10 O10        -1.8949    0.9867   50.0359 O.2     1  ZINC000469435497   -0.5200
     11 C11        -2.8158    2.4081   51.6796 C.3     1  ZINC000469435497    0.1000
     12 N12        -3.8977    1.4256   51.7805 N.am    1  ZINC000469435497   -0.7200
     13 C13        -5.1426    1.8253   52.1072 C.2     1  ZINC000469435497    0.5700
     14 O14        -5.3674    3.0008   52.3196 O.2     1  ZINC000469435497   -0.5300
     15 C15        -6.2350    0.8339   52.2073 C.ar    1  ZINC000469435497   -0.1400
     16 C16        -5.9889   -0.5116   51.9306 C.ar    1  ZINC000469435497   -0.0800
     17 C17        -7.0134   -1.4289   52.0266 C.ar    1  ZINC000469435497   -0.1100
     18 C18        -8.2863   -1.0230   52.3959 C.ar    1  ZINC000469435497   -0.0700
     19 C19        -9.5576   -1.8274   52.5683 C.3     1  ZINC000469435497   -0.0900
     20 C20       -10.4970   -0.9261   53.3972 C.3     1  ZINC000469435497   -0.1200
     21 C21        -9.9923    0.4898   53.0475 C.3     1  ZINC000469435497   -0.0800
     22 C22        -8.5367    0.3101   52.6715 C.ar    1  ZINC000469435497   -0.1100
     23 C23        -7.5158    1.2373   52.5842 C.ar    1  ZINC000469435497   -0.0400
     24 C24         1.3446    0.5760   50.8851 C.ar    1  ZINC000469435497   -0.1000
     25 C25         2.3909    0.0386   50.1652 C.ar    1  ZINC000469435497   -0.1200
     26 C26         2.7591    0.5909   48.9411 C.ar    1  ZINC000469435497    0.1000
     27 O27         3.7591    0.2325   48.0881 O.3     1  ZINC000469435497   -0.3000
     28 H28         1.7417   -0.4155   46.4434 H       1  ZINC000469435497    0.0600
     29 H29         2.4698    0.2635   44.9679 H       1  ZINC000469435497    0.0800
     30 H30         3.2481   -1.1073   45.7946 H       1  ZINC000469435497    0.0700
     31 H31         4.5742    1.6420   45.1313 H       1  ZINC000469435497    0.0800
     32 H32         5.3702    1.8453   46.7104 H       1  ZINC000469435497    0.0700
     33 H33         5.3861    0.2589   45.9033 H       1  ZINC000469435497    0.0700
     34 H34         3.3094    2.9265   47.2114 H       1  ZINC000469435497    0.0900
     35 H35         1.8925    2.2170   46.3680 H       1  ZINC000469435497    0.0900
     36 H36         0.4747    3.0807   48.7870 H       1  ZINC000469435497    0.1400
     37 H37        -0.2355    2.8867   51.8135 H       1  ZINC000469435497    0.4200
     38 H38        -2.4684    2.6699   52.6790 H       1  ZINC000469435497    0.1100
     39 H39        -3.1831    3.3027   51.1766 H       1  ZINC000469435497    0.1100
     40 H40        -3.7181    0.4873   51.6122 H       1  ZINC000469435497    0.4100
     41 H41        -4.9990   -0.8332   51.6422 H       1  ZINC000469435497    0.1300
     42 H42        -6.8231   -2.4702   51.8121 H       1  ZINC000469435497    0.1300
     43 H43       -10.0021   -2.0450   51.5971 H       1  ZINC000469435497    0.0900
     44 H44        -9.3498   -2.7527   53.1058 H       1  ZINC000469435497    0.0800
     45 H45       -11.5333   -1.0560   53.0853 H       1  ZINC000469435497    0.0800
     46 H46       -10.3841   -1.1254   54.4628 H       1  ZINC000469435497    0.0700
     47 H47       -10.5534    0.8939   52.2050 H       1  ZINC000469435497    0.0800
     48 H48       -10.0811    1.1473   53.9123 H       1  ZINC000469435497    0.0800
     49 H49        -7.7107    2.2764   52.8049 H       1  ZINC000469435497    0.1400
     50 H50         1.0652    0.1414   51.8335 H       1  ZINC000469435497    0.1400
     51 H51         2.9272   -0.8151   50.5525 H       1  ZINC000469435497    0.1300
@<TRIPOS>BOND
     1     1     2    1
     2     1    28    1
     3     1    29    1
     4     1    30    1
     5     2    27    1
     6     2     3    1
     7     2     4    1
     8     3    31    1
     9     3    32    1
    10     3    33    1
    11     4     5    1
    12     4    34    1
    13     4    35    1
    14     5    26   ar
    15     5     6   ar
    16     6     7   ar
    17     6    36    1
    18     7     8    1
    19     7    24   ar
    20     8     9   am
    21     8    37    1
    22     9    10    2
    23     9    11    1
    24    11    12    1
    25    11    38    1
    26    11    39    1
    27    12    13   am
    28    12    40    1
    29    13    14    2
    30    13    15    1
    31    15    23   ar
    32    15    16   ar
    33    16    17   ar
    34    16    41    1
    35    17    18   ar
    36    17    42    1
    37    18    22   ar
    38    18    19    1
    39    19    20    1
    40    19    43    1
    41    19    44    1
    42    20    21    1
    43    20    45    1
    44    20    46    1
    45    21    22    1
    46    21    47    1
    47    21    48    1
    48    22    23   ar
    49    23    49    1
    50    24    25   ar
    51    24    50    1
    52    25    26   ar
    53    25    51    1
    54    26    27    1
@<TRIPOS>SUBSTRUCTURE
     1 ZINC000469435497        1 TEMP              0 ****  ****    0 ROOT


##########                                Name:    ZINC000989658617
##########                DOCK_Rotatable_Bonds:                   6
##########                         Heavy_Atoms:                  24
##########                    Molecular_Weight:             334.418
##########                DOCK_Rotatable_Bonds:                   6
##########                       Formal_Charge:          -0.0100001
##########                     HBond_Acceptors:                   7
##########                        HBond_Donors:                   2
##########                         Heavy_Atoms:                  24
##########                          Grid_Score:          -31.687828
##########                     Grid_vdw_energy:          -32.531689
##########                      Grid_es_energy:            0.843862
##########           Internal_energy_repulsive:           13.233097

@<TRIPOS>MOLECULE
ZINC000989658617
 50 52 1 0 0
SMALL
USER_CHARGES


@<TRIPOS>ATOM
      1 C1          3.0565    0.2473   50.4202 C.3     1  ZINC000989658617    0.0300
      2 O2          2.3858    1.1151   51.3363 O.3     1  ZINC000989658617   -0.3700
      3 C3          1.1381    1.6175   50.8538 C.3     1  ZINC000989658617    0.0500
      4 C4          0.5222    2.5165   51.8947 C.2     1  ZINC000989658617    0.5300
      5 O5          1.2329    3.1438   52.6512 O.2     1  ZINC000989658617   -0.5100
      6 N6         -0.8182    2.6235   51.9847 N.am    1  ZINC000989658617   -0.6200
      7 C7         -1.5502    3.4621   52.9513 C.3     1  ZINC000989658617    0.1000
      8 C8         -2.9442    2.7980   53.0766 C.3     1  ZINC000989658617   -0.1500
      9 C9         -3.1998    2.3329   51.6186 C.3     1  ZINC000989658617    0.1400
     10 H10        -3.5923    3.1518   51.0158 H       1  ZINC000989658617    0.1100
     11 N11        -4.1138    1.1882   51.5925 N.am    1  ZINC000989658617   -0.7100
     12 C12        -5.4140    1.3568   51.9044 C.2     1  ZINC000989658617    0.6100
     13 O13        -5.8282    2.4584   52.2090 O.2     1  ZINC000989658617   -0.5200
     14 C14        -6.3359    0.2031   51.8763 C.2     1  ZINC000989658617   -0.0100
     15 N15        -6.0777   -1.0027   51.3993 N.2     1  ZINC000989658617   -0.2600
     16 N16        -7.1079   -1.7642   51.5362 N.pl3   1  ZINC000989658617   -0.3700
     17 C17        -8.1083   -1.0845   52.1203 C.2     1  ZINC000989658617    0.0100
     18 C18        -7.6557    0.1715   52.3567 C.2     1  ZINC000989658617   -0.1400
     19 C19        -8.4650    1.2646   52.9983 C.3     1  ZINC000989658617   -0.0400
     20 C20        -9.9443    0.8583   52.9532 C.3     1  ZINC000989658617   -0.0900
     21 H21       -10.3029    0.9060   51.9250 H       1  ZINC000989658617    0.0700
     22 C22       -10.7624    1.8146   53.8233 C.3     1  ZINC000989658617   -0.1500
     23 C23       -10.0986   -0.5703   53.4818 C.3     1  ZINC000989658617   -0.1100
     24 C24        -9.4915   -1.5612   52.4823 C.3     1  ZINC000989658617   -0.0500
     25 C25        -1.7926    1.9283   51.1309 C.3     1  ZINC000989658617    0.1300
     26 H26        -1.6617    0.8507   51.2292 H       1  ZINC000989658617    0.0800
     27 C27        -1.6091    2.3435   49.6697 C.3     1  ZINC000989658617   -0.1600
     28 H28         2.4239   -0.6142   50.2064 H       1  ZINC000989658617    0.0500
     29 H29         3.2626    0.7853   49.4948 H       1  ZINC000989658617    0.0400
     30 H30         3.9945   -0.0909   50.8605 H       1  ZINC000989658617    0.0900
     31 H31         1.3044    2.1834   49.9372 H       1  ZINC000989658617    0.0800
     32 H32         0.4656    0.7843   50.6494 H       1  ZINC000989658617    0.0800
     33 H33        -1.0418    3.4616   53.9154 H       1  ZINC000989658617    0.0800
     34 H34        -1.6476    4.4798   52.5734 H       1  ZINC000989658617    0.0800
     35 H35        -2.9120    1.9478   53.7580 H       1  ZINC000989658617    0.0800
     36 H36        -3.6949    3.5221   53.3931 H       1  ZINC000989658617    0.1000
     37 H37        -3.7831    0.3090   51.3506 H       1  ZINC000989658617    0.4100
     38 H38        -7.1542   -2.6923   51.2581 H       1  ZINC000989658617    0.4500
     39 H39        -8.1510    1.3946   54.0340 H       1  ZINC000989658617    0.0800
     40 H40        -8.3231    2.1964   52.4510 H       1  ZINC000989658617    0.0800
     41 H41       -10.6533    2.8318   53.4468 H       1  ZINC000989658617    0.0600
     42 H42       -11.8131    1.5262   53.7914 H       1  ZINC000989658617    0.0600
     43 H43       -10.4038    1.7674   54.8515 H       1  ZINC000989658617    0.0600
     44 H44        -9.5823   -0.6614   54.4373 H       1  ZINC000989658617    0.0700
     45 H45       -11.1566   -0.7943   53.6188 H       1  ZINC000989658617    0.0800
     46 H46       -10.1077   -1.6008   51.5841 H       1  ZINC000989658617    0.0800
     47 H47        -9.4362   -2.5514   52.9344 H       1  ZINC000989658617    0.0800
     48 H48        -1.7234    3.4239   49.5818 H       1  ZINC000989658617    0.0600
     49 H49        -0.6136    2.0548   49.3324 H       1  ZINC000989658617    0.0700
     50 H50        -2.3595    1.8474   49.0541 H       1  ZINC000989658617    0.0700
@<TRIPOS>BOND
     1     1     2    1
     2     1    28    1
     3     1    29    1
     4     1    30    1
     5     2     3    1
     6     3     4    1
     7     3    31    1
     8     3    32    1
     9     4     5    2
    10     4     6   am
    11     6    25    1
    12     6     7    1
    13     7     8    1
    14     7    33    1
    15     7    34    1
    16     8     9    1
    17     8    35    1
    18     8    36    1
    19     9    10    1
    20     9    11    1
    21     9    25    1
    22    11    12   am
    23    11    37    1
    24    12    13    2
    25    12    14    1
    26    14    18    1
    27    14    15    2
    28    15    16    1
    29    16    17    1
    30    16    38    1
    31    17    24    1
    32    17    18    2
    33    18    19    1
    34    19    20    1
    35    19    39    1
    36    19    40    1
    37    20    21    1
    38    20    22    1
    39    20    23    1
    40    22    41    1
    41    22    42    1
    42    22    43    1
    43    23    24    1
    44    23    44    1
    45    23    45    1
    46    24    46    1
    47    24    47    1
    48    25    26    1
    49    25    27    1
    50    27    48    1
    51    27    49    1
    52    27    50    1
@<TRIPOS>SUBSTRUCTURE
     1 ZINC000989658617        1 TEMP              0 ****  ****    0 ROOT


##########                                Name:    ZINC000538774026
##########                DOCK_Rotatable_Bonds:                  10
##########                         Heavy_Atoms:                  29
##########                    Molecular_Weight:             414.496
##########                DOCK_Rotatable_Bonds:                  10
##########                       Formal_Charge:            0.049999
##########                     HBond_Acceptors:                   9
##########                        HBond_Donors:                   2
##########                         Heavy_Atoms:                  29
##########                          Grid_Score:          -31.675137
##########                     Grid_vdw_energy:          -28.580112
##########                      Grid_es_energy:           -3.095024
##########           Internal_energy_repulsive:           24.277710

@<TRIPOS>MOLECULE
ZINC000538774026
 61 62 1 0 0
SMALL
USER_CHARGES


@<TRIPOS>ATOM
      1 C1         -2.1640    5.5018   61.2625 C.3     1  ZINC000538774026   -0.1500
      2 C2         -0.8231    4.9153   61.7087 C.3     1  ZINC000538774026   -0.1100
      3 C3         -0.8465    4.6815   63.2205 C.3     1  ZINC000538774026   -0.1400
      4 C4         -0.5839    3.5857   60.9906 C.3     1  ZINC000538774026    0.1400
      5 N5         -0.4098    3.8296   59.5565 N.pl3   1  ZINC000538774026   -0.3400
      6 N6          0.1782    4.9617   58.9782 N.2     1  ZINC000538774026   -0.2500
      7 C7          0.1549    4.8195   57.6777 C.2     1  ZINC000538774026    0.0500
      8 C8         -0.4496    3.5899   57.3790 C.2     1  ZINC000538774026    0.0800
      9 N9         -0.6651    3.0628   56.0908 N.am    1  ZINC000538774026   -0.6600
     10 C10        -1.4444    3.7255   55.2133 C.2     1  ZINC000538774026    0.7100
     11 O11        -1.9602    4.7792   55.5333 O.2     1  ZINC000538774026   -0.5700
     12 N12        -1.6520    3.2203   53.9812 N.am    1  ZINC000538774026   -0.7300
     13 C13        -2.5005    3.9398   53.0280 C.3     1  ZINC000538774026    0.1600
     14 C14        -1.6200    4.6775   52.0172 C.3     1  ZINC000538774026   -0.1300
     15 C15        -0.7510    3.6675   51.2651 C.3     1  ZINC000538774026   -0.1000
     16 C16        -1.6485    2.6713   50.5283 C.3     1  ZINC000538774026   -0.0800
     17 C17        -0.7924    1.6765   49.7875 C.2     1  ZINC000538774026    0.4700
     18 O18         0.2431    1.2893   50.2752 O.2     1  ZINC000538774026   -0.5000
     19 O19        -1.1803    1.2206   48.5861 O.3     1  ZINC000538774026   -0.3500
     20 C20        -0.4276    1.6798   47.4324 C.3     1  ZINC000538774026    0.1200
     21 C21        -0.0163    3.1389   47.6395 C.3     1  ZINC000538774026   -0.1800
     22 C22         0.8240    0.8161   47.2634 C.3     1  ZINC000538774026   -0.1400
     23 C23        -1.2973    1.5681   46.1786 C.3     1  ZINC000538774026   -0.1800
     24 C24        -2.5289    1.9337   51.5390 C.3     1  ZINC000538774026   -0.1100
     25 C25        -3.3980    2.9436   52.2910 C.3     1  ZINC000538774026   -0.1300
     26 C26        -0.7848    2.9951   58.5522 C.2     1  ZINC000538774026   -0.0500
     27 C27        -1.4586    1.6566   58.7114 C.3     1  ZINC000538774026    0.3500
     28 F28        -1.2602    0.8942   57.5553 F       1  ZINC000538774026   -0.1900
     29 F29        -0.9115    0.9870   59.8111 F       1  ZINC000538774026   -0.1900
     30 H30        -2.3345    6.4491   61.7741 H       1  ZINC000538774026    0.0600
     31 H31        -2.1473    5.6684   60.1855 H       1  ZINC000538774026    0.0600
     32 H32        -2.9654    4.8057   61.5101 H       1  ZINC000538774026    0.0600
     33 H33        -0.0217    5.6114   61.4610 H       1  ZINC000538774026    0.0800
     34 H34        -1.6479    3.9854   63.4681 H       1  ZINC000538774026    0.0600
     35 H35         0.1087    4.2636   63.5383 H       1  ZINC000538774026    0.0600
     36 H36        -1.0170    5.6288   63.7321 H       1  ZINC000538774026    0.0600
     37 H37         0.3134    3.1132   61.3903 H       1  ZINC000538774026    0.1000
     38 H38        -1.4402    2.9295   61.1462 H       1  ZINC000538774026    0.1000
     39 H39         0.5359    5.5282   56.9573 H       1  ZINC000538774026    0.2100
     40 H40        -0.2527    2.2229   55.8352 H       1  ZINC000538774026    0.4100
     41 H41        -1.2396    2.3804   53.7255 H       1  ZINC000538774026    0.4000
     42 H42        -3.1196    4.6593   53.5636 H       1  ZINC000538774026    0.1000
     43 H43        -2.2513    5.2128   51.3080 H       1  ZINC000538774026    0.0800
     44 H44        -0.9806    5.3872   52.5421 H       1  ZINC000538774026    0.0800
     45 H45        -0.1237    4.1931   50.5450 H       1  ZINC000538774026    0.0700
     46 H46        -0.1197    3.1322   51.9743 H       1  ZINC000538774026    0.0700
     47 H47        -2.2797    3.2066   49.8190 H       1  ZINC000538774026    0.1100
     48 H48         0.6032    3.2184   48.5327 H       1  ZINC000538774026    0.0600
     49 H49         0.5487    3.4835   46.7734 H       1  ZINC000538774026    0.0700
     50 H50        -0.9080    3.7541   47.7599 H       1  ZINC000538774026    0.0800
     51 H51         0.5311   -0.2233   47.1160 H       1  ZINC000538774026    0.0700
     52 H52         1.3891    1.1609   46.3974 H       1  ZINC000538774026    0.0800
     53 H53         1.4437    0.8957   48.1567 H       1  ZINC000538774026    0.0700
     54 H54        -2.1890    2.1833   46.2990 H       1  ZINC000538774026    0.0800
     55 H55        -0.7323    1.9127   45.3126 H       1  ZINC000538774026    0.0700
     56 H56        -1.5903    0.5285   46.0311 H       1  ZINC000538774026    0.0600
     57 H57        -3.1682    1.2239   51.0140 H       1  ZINC000538774026    0.0800
     58 H58        -1.8975    1.3984   52.2482 H       1  ZINC000538774026    0.0600
     59 H59        -4.0252    2.4180   53.0111 H       1  ZINC000538774026    0.0800
     60 H60        -4.0292    3.4789   51.5818 H       1  ZINC000538774026    0.0900
     61 H61        -2.5268    1.8042   58.8705 H       1  ZINC000538774026    0.1300
@<TRIPOS>BOND
     1     1     2    1
     2     1    30    1
     3     1    31    1
     4     1    32    1
     5     2     3    1
     6     2     4    1
     7     2    33    1
     8     3    34    1
     9     3    35    1
    10     3    36    1
    11     4     5    1
    12     4    37    1
    13     4    38    1
    14     5    26    1
    15     5     6    1
    16     6     7    2
    17     7     8    1
    18     7    39    1
    19     8     9    1
    20     8    26    2
    21     9    10   am
    22     9    40    1
    23    10    11    2
    24    10    12   am
    25    12    13    1
    26    12    41    1
    27    13    25    1
    28    13    14    1
    29    13    42    1
    30    14    15    1
    31    14    43    1
    32    14    44    1
    33    15    16    1
    34    15    45    1
    35    15    46    1
    36    16    17    1
    37    16    24    1
    38    16    47    1
    39    17    18    2
    40    17    19    1
    41    19    20    1
    42    20    21    1
    43    20    22    1
    44    20    23    1
    45    21    48    1
    46    21    49    1
    47    21    50    1
    48    22    51    1
    49    22    52    1
    50    22    53    1
    51    23    54    1
    52    23    55    1
    53    23    56    1
    54    24    25    1
    55    24    57    1
    56    24    58    1
    57    25    59    1
    58    25    60    1
    59    26    27    1
    60    27    28    1
    61    27    29    1
    62    27    61    1
@<TRIPOS>SUBSTRUCTURE
     1 ZINC000538774026        1 TEMP              0 ****  ****    0 ROOT


##########                                Name:    ZINC000654672208
##########                DOCK_Rotatable_Bonds:                   5
##########                         Heavy_Atoms:                  25
##########                    Molecular_Weight:             365.497
##########                DOCK_Rotatable_Bonds:                   5
##########                       Formal_Charge:           0.0100001
##########                     HBond_Acceptors:                   7
##########                        HBond_Donors:                   1
##########                         Heavy_Atoms:                  25
##########                          Grid_Score:          -31.658056
##########                     Grid_vdw_energy:          -30.975359
##########                      Grid_es_energy:           -0.682698
##########           Internal_energy_repulsive:           16.844002

@<TRIPOS>MOLECULE
ZINC000654672208
 52 54 1 0 0
SMALL
USER_CHARGES


@<TRIPOS>ATOM
      1 C1         -2.0893    3.8627   54.0975 C.3     1  ZINC000654672208   -0.1100
      2 C2         -3.2335    3.1485   53.4255 C.ar    1  ZINC000654672208   -0.1300
      3 C3         -2.9905    2.2015   52.4490 C.ar    1  ZINC000654672208    0.1000
      4 N4         -3.9867    1.5720   51.8568 N.ar    1  ZINC000654672208   -0.4700
      5 C5         -5.2444    1.8170   52.1680 C.ar    1  ZINC000654672208    0.1200
      6 C6         -6.3456    1.0697   51.4609 C.3     1  ZINC000654672208   -0.0900
      7 C7         -6.9515    0.0350   52.4111 C.3     1  ZINC000654672208    0.1500
      8 N8         -8.4104    0.1685   52.4125 N.am    1  ZINC000654672208   -0.7500
      9 C9         -9.1878   -0.9324   52.3987 C.2     1  ZINC000654672208    0.7100
     10 O10        -8.6784   -2.0363   52.3850 O.2     1  ZINC000654672208   -0.5800
     11 N11       -10.5300   -0.8096   52.4000 N.am    1  ZINC000654672208   -0.6300
     12 C12       -11.1597    0.5178   52.4164 C.3     1  ZINC000654672208    0.1300
     13 C13       -12.1477    0.5791   53.5854 C.3     1  ZINC000654672208   -0.1400
     14 C14       -13.1361   -0.5835   53.4750 C.3     1  ZINC000654672208   -0.1100
     15 C15       -12.3747   -1.9118   53.5592 C.3     1  ZINC000654672208   -0.0600
     16 C16       -13.3732   -3.0699   53.4618 C.3     1  ZINC000654672208   -0.1200
     17 C17       -12.8077   -4.2815   54.2466 C.3     1  ZINC000654672208   -0.5800
     18 S18       -12.1443   -3.4542   55.7482 S.o2    1  ZINC000654672208    2.3800
     19 O19       -13.2142   -3.1259   56.6239 O.2     1  ZINC000654672208   -0.9300
     20 O20       -11.0220   -4.1773   56.2347 O.2     1  ZINC000654672208   -0.9300
     21 C21       -11.5792   -1.9459   54.8755 C.3     1  ZINC000654672208   -0.5800
     22 C22       -11.3898   -2.0002   52.3790 C.3     1  ZINC000654672208    0.1200
     23 C23        -5.5643    2.7509   53.1354 C.ar    1  ZINC000654672208   -0.1200
     24 C24        -7.0044    3.0243   53.4853 C.3     1  ZINC000654672208   -0.1200
     25 C25        -4.5436    3.4293   53.7833 C.ar    1  ZINC000654672208   -0.0800
     26 H26        -1.7752    3.2994   54.9762 H       1  ZINC000654672208    0.0700
     27 H27        -1.2543    3.9461   53.4018 H       1  ZINC000654672208    0.0700
     28 H28        -2.4107    4.8591   54.4005 H       1  ZINC000654672208    0.0700
     29 H29        -1.9729    1.9744   52.1672 H       1  ZINC000654672208    0.1600
     30 H30        -7.1183    1.7720   51.1479 H       1  ZINC000654672208    0.0900
     31 H31        -5.9379    0.5643   50.5855 H       1  ZINC000654672208    0.0900
     32 H32        -6.6786   -0.9668   52.0793 H       1  ZINC000654672208    0.0700
     33 H33        -6.5706    0.2002   53.4190 H       1  ZINC000654672208    0.0700
     34 H34        -8.8168    1.0491   52.4234 H       1  ZINC000654672208    0.3900
     35 H35       -10.3946    1.2837   52.5437 H       1  ZINC000654672208    0.1000
     36 H36       -11.6916    0.6815   51.4792 H       1  ZINC000654672208    0.0700
     37 H37       -11.6028    0.5052   54.5265 H       1  ZINC000654672208    0.0700
     38 H38       -12.6916    1.5232   53.5528 H       1  ZINC000654672208    0.0800
     39 H39       -13.8573   -0.5259   54.2902 H       1  ZINC000654672208    0.0800
     40 H40       -13.6605   -0.5252   52.5213 H       1  ZINC000654672208    0.0800
     41 H41       -14.3279   -2.7677   53.8924 H       1  ZINC000654672208    0.1000
     42 H42       -13.5154   -3.3443   52.4166 H       1  ZINC000654672208    0.1000
     43 H43       -13.5988   -4.9858   54.5040 H       1  ZINC000654672208    0.1400
     44 H44       -12.0129   -4.7746   53.6870 H       1  ZINC000654672208    0.1400
     45 H45       -10.5108   -2.0074   54.6691 H       1  ZINC000654672208    0.1400
     46 H46       -11.7986   -1.0604   55.4719 H       1  ZINC000654672208    0.1400
     47 H47       -11.9451   -2.0407   51.4419 H       1  ZINC000654672208    0.0800
     48 H48       -10.7757   -2.8948   52.4815 H       1  ZINC000654672208    0.0800
     49 H49        -7.3160    2.3572   54.2890 H       1  ZINC000654672208    0.0800
     50 H50        -7.1090    4.0593   53.8111 H       1  ZINC000654672208    0.0700
     51 H51        -7.6298    2.8544   52.6089 H       1  ZINC000654672208    0.0700
     52 H52        -4.7637    4.1643   54.5434 H       1  ZINC000654672208    0.1300
@<TRIPOS>BOND
     1     1     2    1
     2     1    26    1
     3     1    27    1
     4     1    28    1
     5     2    25   ar
     6     2     3   ar
     7     3     4   ar
     8     3    29    1
     9     4     5   ar
    10     5     6    1
    11     5    23   ar
    12     6     7    1
    13     6    30    1
    14     6    31    1
    15     7     8    1
    16     7    32    1
    17     7    33    1
    18     8     9   am
    19     8    34    1
    20     9    10    2
    21     9    11   am
    22    11    22    1
    23    11    12    1
    24    12    13    1
    25    12    35    1
    26    12    36    1
    27    13    14    1
    28    13    37    1
    29    13    38    1
    30    14    15    1
    31    14    39    1
    32    14    40    1
    33    15    21    1
    34    15    16    1
    35    15    22    1
    36    16    17    1
    37    16    41    1
    38    16    42    1
    39    17    18    1
    40    17    43    1
    41    17    44    1
    42    18    19    2
    43    18    20    2
    44    18    21    1
    45    21    45    1
    46    21    46    1
    47    22    47    1
    48    22    48    1
    49    23    24    1
    50    23    25   ar
    51    24    49    1
    52    24    50    1
    53    24    51    1
    54    25    52    1
@<TRIPOS>SUBSTRUCTURE
     1 ZINC000654672208        1 TEMP              0 ****  ****    0 ROOT


##########                                Name:    ZINC001371344729
##########                DOCK_Rotatable_Bonds:                   9
##########                         Heavy_Atoms:                  24
##########                    Molecular_Weight:             332.399
##########                DOCK_Rotatable_Bonds:                   9
##########                       Formal_Charge:          0.00999983
##########                     HBond_Acceptors:                   6
##########                        HBond_Donors:                   1
##########                         Heavy_Atoms:                  24
##########                          Grid_Score:          -31.646523
##########                     Grid_vdw_energy:          -31.976196
##########                      Grid_es_energy:            0.329674
##########           Internal_energy_repulsive:           28.968189

@<TRIPOS>MOLECULE
ZINC001371344729
 48 49 1 0 0
SMALL
USER_CHARGES


@<TRIPOS>ATOM
      1 C1        -12.2059   -0.3791   55.1915 C.3     1  ZINC001371344729   -0.1800
      2 C2        -11.3440   -1.6068   54.8903 C.3     1  ZINC001371344729    0.1000
      3 N3        -10.8641   -1.5393   53.5078 N.am    1  ZINC001371344729   -0.6100
      4 C4        -11.0792   -2.5719   52.6687 C.2     1  ZINC001371344729    0.5100
      5 O5        -10.6832   -2.5155   51.5237 O.2     1  ZINC001371344729   -0.5200
      6 C6        -11.8117   -3.7966   53.1532 C.3     1  ZINC001371344729   -0.0600
      7 C7        -13.2896   -3.5077   53.2115 C.2     1  ZINC001371344729   -0.0100
      8 C8        -14.1017   -3.7684   54.2516 C.2     1  ZINC001371344729   -0.1600
      9 C9        -13.7074   -4.3970   55.5633 C.3     1  ZINC001371344729   -0.0800
     10 C10       -15.3973   -3.3453   53.8758 C.2     1  ZINC001371344729   -0.2100
     11 C11       -15.2976   -2.8425   52.6322 C.2     1  ZINC001371344729   -0.0300
     12 O12       -14.0194   -2.9469   52.2335 O.3     1  ZINC001371344729   -0.1700
     13 C13       -10.1505   -0.3495   53.0373 C.3     1  ZINC001371344729    0.1200
     14 H14        -9.9194    0.2946   53.8856 H       1  ZINC001371344729    0.1100
     15 C15       -11.0293    0.4121   52.0429 C.3     1  ZINC001371344729   -0.1600
     16 C16        -8.8511   -0.7729   52.3495 C.3     1  ZINC001371344729    0.1100
     17 N17        -7.8072    0.2172   52.6258 N.am    1  ZINC001371344729   -0.7200
     18 C18        -6.7387    0.3154   51.8103 C.2     1  ZINC001371344729    0.5900
     19 O19        -6.6417   -0.4171   50.8443 O.2     1  ZINC001371344729   -0.5300
     20 C20        -5.6878    1.3101   52.0894 C.2     1  ZINC001371344729   -0.2300
     21 C21        -5.8288    2.4958   52.7492 C.2     1  ZINC001371344729    0.0200
     22 O22        -4.6371    3.0996   52.7910 O.3     1  ZINC001371344729   -0.1700
     23 C23        -3.7034    2.3598   52.1727 C.2     1  ZINC001371344729   -0.0100
     24 C24        -2.2510    2.7328   52.0232 C.3     1  ZINC001371344729   -0.0800
     25 C25        -4.2695    1.2351   51.7091 C.2     1  ZINC001371344729   -0.1600
     26 H26       -13.0578   -0.3576   54.5118 H       1  ZINC001371344729    0.0700
     27 H27       -12.5630   -0.4292   56.2201 H       1  ZINC001371344729    0.0700
     28 H28       -11.6111    0.5244   55.0570 H       1  ZINC001371344729    0.0600
     29 H29       -11.9390   -2.5102   55.0247 H       1  ZINC001371344729    0.0900
     30 H30       -10.4922   -1.6282   55.5700 H       1  ZINC001371344729    0.0800
     31 H31       -11.4543   -4.0642   54.1475 H       1  ZINC001371344729    0.1100
     32 H32       -11.6300   -4.6238   52.4670 H       1  ZINC001371344729    0.1200
     33 H33       -13.4155   -3.6172   56.2667 H       1  ZINC001371344729    0.0700
     34 H34       -14.5527   -4.9536   55.9681 H       1  ZINC001371344729    0.0700
     35 H35       -12.8688   -5.0749   55.4038 H       1  ZINC001371344729    0.0600
     36 H36       -16.2944   -3.4105   54.4737 H       1  ZINC001371344729    0.1500
     37 H37       -16.1090   -2.4300   52.0507 H       1  ZINC001371344729    0.2000
     38 H38       -11.9550    0.7137   52.5331 H       1  ZINC001371344729    0.0700
     39 H39       -10.4984    1.2974   51.6929 H       1  ZINC001371344729    0.0700
     40 H40       -11.2604   -0.2322   51.1947 H       1  ZINC001371344729    0.0700
     41 H41        -8.5390   -1.7456   52.7297 H       1  ZINC001371344729    0.0800
     42 H42        -9.0141   -0.8386   51.2738 H       1  ZINC001371344729    0.0800
     43 H43        -7.8852    0.8021   53.3957 H       1  ZINC001371344729    0.4000
     44 H44        -6.7470    2.8802   53.1683 H       1  ZINC001371344729    0.2100
     45 H45        -2.1137    3.2956   51.0998 H       1  ZINC001371344729    0.0800
     46 H46        -1.9439    3.3451   52.8710 H       1  ZINC001371344729    0.0800
     47 H47        -1.6449    1.8275   51.9903 H       1  ZINC001371344729    0.0900
     48 H48        -3.7828    0.4375   51.1675 H       1  ZINC001371344729    0.1600
@<TRIPOS>BOND
     1     1     2    1
     2     1    26    1
     3     1    27    1
     4     1    28    1
     5     2     3    1
     6     2    29    1
     7     2    30    1
     8     3     4   am
     9     3    13    1
    10     4     5    2
    11     4     6    1
    12     6     7    1
    13     6    31    1
    14     6    32    1
    15     7    12    1
    16     7     8    2
    17     8     9    1
    18     8    10    1
    19     9    33    1
    20     9    34    1
    21     9    35    1
    22    10    11    2
    23    10    36    1
    24    11    12    1
    25    11    37    1
    26    13    14    1
    27    13    15    1
    28    13    16    1
    29    15    38    1
    30    15    39    1
    31    15    40    1
    32    16    17    1
    33    16    41    1
    34    16    42    1
    35    17    18   am
    36    17    43    1
    37    18    19    2
    38    18    20    1
    39    20    25    1
    40    20    21    2
    41    21    22    1
    42    21    44    1
    43    22    23    1
    44    23    24    1
    45    23    25    2
    46    24    45    1
    47    24    46    1
    48    24    47    1
    49    25    48    1
@<TRIPOS>SUBSTRUCTURE
     1 ZINC001371344729        1 TEMP              0 ****  ****    0 ROOT


##########                                Name:    ZINC001105793963
##########                DOCK_Rotatable_Bonds:                   9
##########                         Heavy_Atoms:                  24
##########                    Molecular_Weight:             337.422
##########                DOCK_Rotatable_Bonds:                   9
##########                       Formal_Charge:          -0.0100003
##########                     HBond_Acceptors:                   8
##########                        HBond_Donors:                   2
##########                         Heavy_Atoms:                  24
##########                          Grid_Score:          -31.639683
##########                     Grid_vdw_energy:          -31.540417
##########                      Grid_es_energy:           -0.099265
##########           Internal_energy_repulsive:            8.140470

@<TRIPOS>MOLECULE
ZINC001105793963
 51 52 1 0 0
SMALL
USER_CHARGES


@<TRIPOS>ATOM
      1 C1         -7.9075   -0.6671   52.0685 C.3     1  ZINC001105793963   -0.1500
      2 C2         -6.5989   -0.6374   51.2762 C.3     1  ZINC001105793963   -0.0300
      3 C3         -5.7652    0.5342   51.7269 C.2     1  ZINC001105793963    0.1800
      4 N4         -4.4559    0.5886   51.7744 N.2     1  ZINC001105793963   -0.4800
      5 C5         -4.1611    1.8174   52.2351 C.2     1  ZINC001105793963    0.1700
      6 C6         -2.7806    2.3746   52.4694 C.3     1  ZINC001105793963    0.1500
      7 N7         -1.8402    1.7700   51.5165 N.3     1  ZINC001105793963   -0.6900
      8 C8         -1.8474    2.4942   50.2384 C.3     1  ZINC001105793963    0.0700
      9 C9         -0.9599    1.7602   49.2313 C.3     1  ZINC001105793963   -0.1000
     10 H10        -1.2532    0.7126   49.1618 H       1  ZINC001105793963    0.1000
     11 C11         0.5246    1.8760   49.6395 C.3     1  ZINC001105793963    0.1100
     12 N12         1.2549    2.0164   48.3583 N.am    1  ZINC001105793963   -0.6200
     13 C13         2.4351    1.4638   48.0146 C.2     1  ZINC001105793963    0.5300
     14 O14         2.9081    1.6768   46.9183 O.2     1  ZINC001105793963   -0.5300
     15 C15         3.1671    0.5812   48.9926 C.3     1  ZINC001105793963    0.1300
     16 H16         2.4699   -0.1343   49.4285 H       1  ZINC001105793963    0.1100
     17 C17         4.2821   -0.1719   48.2643 C.3     1  ZINC001105793963   -0.1600
     18 N18         3.7480    1.4061   50.0548 N.am    1  ZINC001105793963   -0.7200
     19 C19         4.0547    0.8540   51.2453 C.2     1  ZINC001105793963    0.5200
     20 C20         4.6505    1.7030   52.3386 C.3     1  ZINC001105793963   -0.1700
     21 O21         3.8511   -0.3261   51.4369 O.2     1  ZINC001105793963   -0.5500
     22 C22         0.3935    2.9019   47.5405 C.3     1  ZINC001105793963    0.1000
     23 C23        -1.0484    2.4349   47.8466 C.3     1  ZINC001105793963   -0.1000
     24 H24        -1.7236    3.2897   47.8845 H       1  ZINC001105793963    0.0900
     25 C25        -1.5187    1.4332   46.7900 C.3     1  ZINC001105793963   -0.1500
     26 N26        -5.2851    2.4360   52.4404 N.2     1  ZINC001105793963   -0.3700
     27 O27        -6.2186    1.7182   52.1492 O.3     1  ZINC001105793963    0.0800
     28 H28        -7.6865   -0.7659   53.1313 H       1  ZINC001105793963    0.0600
     29 H29        -8.4575    0.2580   51.8963 H       1  ZINC001105793963    0.0600
     30 H30        -8.5105   -1.5145   51.7425 H       1  ZINC001105793963    0.0800
     31 H31        -6.0488   -1.5626   51.4485 H       1  ZINC001105793963    0.1100
     32 H32        -6.8198   -0.5386   50.2134 H       1  ZINC001105793963    0.1000
     33 H33        -2.7962    3.4553   52.3286 H       1  ZINC001105793963    0.1000
     34 H34        -2.4642    2.1454   53.4871 H       1  ZINC001105793963    0.0700
     35 H35        -0.9093    1.7290   51.9036 H       1  ZINC001105793963    0.3500
     36 H36        -2.8665    2.5450   49.8553 H       1  ZINC001105793963    0.0800
     37 H37        -1.4658    3.5039   50.3908 H       1  ZINC001105793963    0.0400
     38 H38         0.6794    2.7560   50.2637 H       1  ZINC001105793963    0.0700
     39 H39         0.8460    0.9759   50.1636 H       1  ZINC001105793963    0.0900
     40 H40         4.8116   -0.8102   48.9716 H       1  ZINC001105793963    0.0800
     41 H41         3.8499   -0.7857   47.4739 H       1  ZINC001105793963    0.0800
     42 H42         4.9793    0.5437   47.8283 H       1  ZINC001105793963    0.0600
     43 H43         3.9119    2.3498   49.9011 H       1  ZINC001105793963    0.4100
     44 H44         4.7588    2.7281   51.9843 H       1  ZINC001105793963    0.0800
     45 H45         3.9950    1.6868   53.2092 H       1  ZINC001105793963    0.1000
     46 H46         5.6288    1.3082   52.6128 H       1  ZINC001105793963    0.1000
     47 H47         0.5280    3.9422   47.8369 H       1  ZINC001105793963    0.0800
     48 H48         0.6161    2.7758   46.4811 H       1  ZINC001105793963    0.0900
     49 H49        -0.8419    0.5790   46.7725 H       1  ZINC001105793963    0.0600
     50 H50        -2.5256    1.0942   47.0334 H       1  ZINC001105793963    0.0600
     51 H51        -1.5234    1.9129   45.8113 H       1  ZINC001105793963    0.0600
@<TRIPOS>BOND
     1     1     2    1
     2     1    28    1
     3     1    29    1
     4     1    30    1
     5     2     3    1
     6     2    31    1
     7     2    32    1
     8     3    27    1
     9     3     4    2
    10     4     5    1
    11     5     6    1
    12     5    26    2
    13     6     7    1
    14     6    33    1
    15     6    34    1
    16     7     8    1
    17     7    35    1
    18     8     9    1
    19     8    36    1
    20     8    37    1
    21     9    10    1
    22     9    23    1
    23     9    11    1
    24    11    12    1
    25    11    38    1
    26    11    39    1
    27    12    13   am
    28    12    22    1
    29    13    14    2
    30    13    15    1
    31    15    16    1
    32    15    17    1
    33    15    18    1
    34    17    40    1
    35    17    41    1
    36    17    42    1
    37    18    19   am
    38    18    43    1
    39    19    20    1
    40    19    21    2
    41    20    44    1
    42    20    45    1
    43    20    46    1
    44    22    23    1
    45    22    47    1
    46    22    48    1
    47    23    24    1
    48    23    25    1
    49    25    49    1
    50    25    50    1
    51    25    51    1
    52    26    27    1
@<TRIPOS>SUBSTRUCTURE
     1 ZINC001105793963        1 TEMP              0 ****  ****    0 ROOT


##########                                Name:    ZINC000464752079
##########                DOCK_Rotatable_Bonds:                   7
##########                         Heavy_Atoms:                  29
##########                    Molecular_Weight:             404.413
##########                DOCK_Rotatable_Bonds:                   7
##########                       Formal_Charge:         7.45058e-08
##########                     HBond_Acceptors:                   8
##########                        HBond_Donors:                   1
##########                         Heavy_Atoms:                  29
##########                          Grid_Score:          -31.638897
##########                     Grid_vdw_energy:          -31.514902
##########                      Grid_es_energy:           -0.123995
##########           Internal_energy_repulsive:           15.961840

@<TRIPOS>MOLECULE
ZINC000464752079
 51 54 1 0 0
SMALL
USER_CHARGES


@<TRIPOS>ATOM
      1 C1        -14.8904   -2.4020   59.6342 C.3     1  ZINC000464752079   -0.1200
      2 C2        -14.0784   -3.2179   58.6615 C.ar    1  ZINC000464752079   -0.0800
      3 C3        -14.6332   -4.3336   58.0636 C.ar    1  ZINC000464752079   -0.1200
      4 C4        -13.8882   -5.0822   57.1713 C.ar    1  ZINC000464752079   -0.1200
      5 C5        -12.5887   -4.7146   56.8770 C.ar    1  ZINC000464752079   -0.1300
      6 C6        -12.0341   -3.5980   57.4745 C.ar    1  ZINC000464752079   -0.0900
      7 C7        -12.7803   -2.8472   58.3632 C.ar    1  ZINC000464752079   -0.0800
      8 C8        -12.1756   -1.6301   59.0145 C.3     1  ZINC000464752079    0.2000
      9 H9        -12.9572   -0.9056   59.2435 H       1  ZINC000464752079    0.0900
     10 C10       -11.4419   -2.0377   60.3094 C.3     1  ZINC000464752079   -0.1200
     11 C11       -10.1840   -1.1293   60.2968 C.3     1  ZINC000464752079   -0.1300
     12 C12        -9.8622   -1.0649   58.7829 C.3     1  ZINC000464752079    0.1000
     13 N13       -11.1806   -1.0251   58.1170 N.am    1  ZINC000464752079   -0.6300
     14 C14       -11.4267   -0.5214   56.8914 C.2     1  ZINC000464752079    0.7200
     15 O15       -12.5562   -0.5406   56.4418 O.2     1  ZINC000464752079   -0.5700
     16 N16       -10.4207    0.0035   56.1641 N.am    1  ZINC000464752079   -0.7400
     17 C17       -10.6885    0.5527   54.8326 C.3     1  ZINC000464752079    0.1900
     18 C18        -9.5715    0.1684   53.8968 C.ar    1  ZINC000464752079   -0.1200
     19 C19        -8.4368    0.9536   53.8174 C.ar    1  ZINC000464752079   -0.0500
     20 C20        -7.4085    0.6034   52.9578 C.ar    1  ZINC000464752079    0.0100
     21 C21        -7.5186   -0.5417   52.1731 C.ar    1  ZINC000464752079    0.0800
     22 C22        -8.6563   -1.3278   52.2553 C.ar    1  ZINC000464752079   -0.1800
     23 C23        -9.6810   -0.9757   53.1204 C.ar    1  ZINC000464752079    0.1400
     24 O24       -10.7976   -1.7475   53.2012 O.3     1  ZINC000464752079   -0.3100
     25 C25       -11.7212   -1.6680   52.1138 C.3     1  ZINC000464752079    0.4100
     26 F26       -12.8173   -2.4984   52.3712 F       1  ZINC000464752079   -0.2000
     27 F27       -12.1602   -0.3475   51.9704 F       1  ZINC000464752079   -0.2000
     28 O28        -6.3865   -0.6658   51.4207 O.3     1  ZINC000464752079   -0.3000
     29 C29        -5.7610    0.6308   51.4499 C.3     1  ZINC000464752079    0.2100
     30 O30        -6.2063    1.1972   52.6966 O.3     1  ZINC000464752079   -0.3000
     31 H31       -15.4302   -1.6242   59.0939 H       1  ZINC000464752079    0.0700
     32 H32       -15.6022   -3.0495   60.1461 H       1  ZINC000464752079    0.0700
     33 H33       -14.2262   -1.9420   60.3658 H       1  ZINC000464752079    0.0700
     34 H34       -15.6486   -4.6209   58.2935 H       1  ZINC000464752079    0.1200
     35 H35       -14.3215   -5.9545   56.7046 H       1  ZINC000464752079    0.1200
     36 H36       -12.0065   -5.2997   56.1805 H       1  ZINC000464752079    0.1200
     37 H37       -11.0186   -3.3109   57.2448 H       1  ZINC000464752079    0.1100
     38 H38       -12.0587   -1.8301   61.1839 H       1  ZINC000464752079    0.0900
     39 H39       -11.1582   -3.0896   60.2772 H       1  ZINC000464752079    0.0800
     40 H40       -10.4134   -0.1389   60.6899 H       1  ZINC000464752079    0.0800
     41 H41        -9.3652   -1.5880   60.8511 H       1  ZINC000464752079    0.0900
     42 H42        -9.2955   -0.1625   58.5536 H       1  ZINC000464752079    0.0700
     43 H43        -9.3070   -1.9510   58.4750 H       1  ZINC000464752079    0.0700
     44 H44        -9.5193    0.0178   56.5224 H       1  ZINC000464752079    0.4000
     45 H45       -11.6306    0.1527   54.4574 H       1  ZINC000464752079    0.0800
     46 H46       -10.7537    1.6390   54.8939 H       1  ZINC000464752079    0.0800
     47 H47        -8.3519    1.8416   54.4261 H       1  ZINC000464752079    0.1500
     48 H48        -8.7438   -2.2164   51.6477 H       1  ZINC000464752079    0.1500
     49 H49       -11.2297   -1.9893   51.1954 H       1  ZINC000464752079    0.1900
     50 H50        -4.6755    0.5327   51.4397 H       1  ZINC000464752079    0.1400
     51 H51        -6.0996    1.2384   50.6106 H       1  ZINC000464752079    0.0900
@<TRIPOS>BOND
     1     1     2    1
     2     1    31    1
     3     1    32    1
     4     1    33    1
     5     2     7   ar
     6     2     3   ar
     7     3     4   ar
     8     3    34    1
     9     4     5   ar
    10     4    35    1
    11     5     6   ar
    12     5    36    1
    13     6     7   ar
    14     6    37    1
    15     7     8    1
    16     8     9    1
    17     8    13    1
    18     8    10    1
    19    10    11    1
    20    10    38    1
    21    10    39    1
    22    11    12    1
    23    11    40    1
    24    11    41    1
    25    12    13    1
    26    12    42    1
    27    12    43    1
    28    13    14   am
    29    14    15    2
    30    14    16   am
    31    16    17    1
    32    16    44    1
    33    17    18    1
    34    17    45    1
    35    17    46    1
    36    18    23   ar
    37    18    19   ar
    38    19    20   ar
    39    19    47    1
    40    20    30    1
    41    20    21   ar
    42    21    22   ar
    43    21    28    1
    44    22    23   ar
    45    22    48    1
    46    23    24    1
    47    24    25    1
    48    25    26    1
    49    25    27    1
    50    25    49    1
    51    28    29    1
    52    29    30    1
    53    29    50    1
    54    29    51    1
@<TRIPOS>SUBSTRUCTURE
     1 ZINC000464752079        1 TEMP              0 ****  ****    0 ROOT


##########                                Name:    ZINC000603906271
##########                DOCK_Rotatable_Bonds:                   8
##########                         Heavy_Atoms:                  29
##########                    Molecular_Weight:             391.473
##########                DOCK_Rotatable_Bonds:                   8
##########                       Formal_Charge:           0.0499998
##########                     HBond_Acceptors:                   7
##########                        HBond_Donors:                   3
##########                         Heavy_Atoms:                  29
##########                          Grid_Score:          -31.636831
##########                     Grid_vdw_energy:          -30.422615
##########                      Grid_es_energy:           -1.214216
##########           Internal_energy_repulsive:           18.933048

@<TRIPOS>MOLECULE
ZINC000603906271
 54 56 1 0 0
SMALL
USER_CHARGES


@<TRIPOS>ATOM
      1 C1         -8.5754    2.3550   55.8987 C.3     1  ZINC000603906271   -0.1600
      2 C2         -8.7590    2.4766   54.3847 C.3     1  ZINC000603906271    0.1300
      3 H3         -9.2460    3.4238   54.1526 H       1  ZINC000603906271    0.1200
      4 N4         -7.4501    2.4269   53.7284 N.am    1  ZINC000603906271   -0.7100
      5 C5         -6.6571    3.5166   53.7231 C.2     1  ZINC000603906271    0.5700
      6 O6         -7.0285    4.5412   54.2614 O.2     1  ZINC000603906271   -0.5300
      7 C7         -5.3354    3.4659   53.0624 C.ar    1  ZINC000603906271   -0.1400
      8 C8         -4.4640    4.5523   53.1542 C.ar    1  ZINC000603906271   -0.0800
      9 C9         -3.2320    4.4985   52.5357 C.ar    1  ZINC000603906271   -0.1200
     10 C10        -2.8597    3.3710   51.8253 C.ar    1  ZINC000603906271   -0.0400
     11 C11        -1.5127    3.3194   51.1518 C.3     1  ZINC000603906271   -0.0400
     12 C12        -1.3707    1.9969   50.3958 C.3     1  ZINC000603906271   -0.1400
     13 C13        -1.3893    4.4849   50.1683 C.3     1  ZINC000603906271   -0.1500
     14 C14        -0.4102    3.4242   52.2076 C.3     1  ZINC000603906271   -0.1400
     15 C15        -3.7188    2.2905   51.7308 C.ar    1  ZINC000603906271   -0.1300
     16 C16        -4.9515    2.3294   52.3491 C.ar    1  ZINC000603906271   -0.0500
     17 C17        -9.6130    1.3381   53.8892 C.2     1  ZINC000603906271    0.5100
     18 O18       -10.6197    1.5676   53.2527 O.2     1  ZINC000603906271   -0.5100
     19 N19        -9.2583    0.0650   54.1533 N.am    1  ZINC000603906271   -0.6700
     20 C20       -10.0514   -0.9921   53.6932 C.ar    1  ZINC000603906271    0.1300
     21 C21       -10.1815   -1.2204   52.3289 C.ar    1  ZINC000603906271   -0.1200
     22 C22       -10.9639   -2.2637   51.8708 C.ar    1  ZINC000603906271   -0.1000
     23 C23       -11.6207   -3.0841   52.7658 C.ar    1  ZINC000603906271   -0.0900
     24 C24       -11.4963   -2.8620   54.1362 C.ar    1  ZINC000603906271    0.0000
     25 C25       -12.2022   -3.7428   55.0998 C.2     1  ZINC000603906271    0.2700
     26 N26       -11.6718   -4.2829   56.1750 N.2     1  ZINC000603906271   -0.3000
     27 N27       -12.6854   -5.0349   56.7910 N.pl3   1  ZINC000603906271   -0.4800
     28 C28       -13.7839   -4.8939   56.0275 C.2     1  ZINC000603906271    0.2700
     29 N29       -13.4869   -4.1147   55.0214 N.2     1  ZINC000603906271   -0.5300
     30 C30       -10.7032   -1.8158   54.5988 C.ar    1  ZINC000603906271   -0.0800
     31 H31        -8.0885    1.4079   56.1308 H       1  ZINC000603906271    0.0700
     32 H32        -7.9578    3.1786   56.2571 H       1  ZINC000603906271    0.0800
     33 H33        -9.5493    2.3921   56.3869 H       1  ZINC000603906271    0.0700
     34 H34        -7.1543    1.6096   53.2978 H       1  ZINC000603906271    0.4100
     35 H35        -4.7535    5.4332   53.7078 H       1  ZINC000603906271    0.1300
     36 H36        -2.5566    5.3384   52.6058 H       1  ZINC000603906271    0.1300
     37 H37        -2.1560    1.9222   49.6436 H       1  ZINC000603906271    0.0600
     38 H38        -0.3963    1.9596   49.9086 H       1  ZINC000603906271    0.0600
     39 H39        -1.4585    1.1666   51.0965 H       1  ZINC000603906271    0.0600
     40 H40        -1.4904    5.4271   50.7068 H       1  ZINC000603906271    0.0600
     41 H41        -0.4149    4.4476   49.6811 H       1  ZINC000603906271    0.0600
     42 H42        -2.1746    4.4102   49.4161 H       1  ZINC000603906271    0.0600
     43 H43        -0.4982    2.5939   52.9083 H       1  ZINC000603906271    0.0600
     44 H44         0.5641    3.3870   51.7205 H       1  ZINC000603906271    0.0600
     45 H45        -0.5114    4.3664   52.7462 H       1  ZINC000603906271    0.0600
     46 H46        -3.4221    1.4132   51.1751 H       1  ZINC000603906271    0.1400
     47 H47        -5.6210    1.4851   52.2750 H       1  ZINC000603906271    0.1400
     48 H48        -8.4532   -0.1184   54.6623 H       1  ZINC000603906271    0.4200
     49 H49        -9.6702   -0.5810   51.6246 H       1  ZINC000603906271    0.1300
     50 H50       -11.0620   -2.4372   50.8093 H       1  ZINC000603906271    0.1400
     51 H51       -12.2316   -3.8980   52.4041 H       1  ZINC000603906271    0.1400
     52 H52       -12.6083   -5.5542   57.6066 H       1  ZINC000603906271    0.4400
     53 H53       -14.7475   -5.3437   56.2163 H       1  ZINC000603906271    0.2300
     54 H54       -10.6036   -1.6398   55.6597 H       1  ZINC000603906271    0.1500
@<TRIPOS>BOND
     1     1     2    1
     2     1    31    1
     3     1    32    1
     4     1    33    1
     5     2     3    1
     6     2     4    1
     7     2    17    1
     8     4     5   am
     9     4    34    1
    10     5     6    2
    11     5     7    1
    12     7    16   ar
    13     7     8   ar
    14     8     9   ar
    15     8    35    1
    16     9    10   ar
    17     9    36    1
    18    10    11    1
    19    10    15   ar
    20    11    12    1
    21    11    13    1
    22    11    14    1
    23    12    37    1
    24    12    38    1
    25    12    39    1
    26    13    40    1
    27    13    41    1
    28    13    42    1
    29    14    43    1
    30    14    44    1
    31    14    45    1
    32    15    16   ar
    33    15    46    1
    34    16    47    1
    35    17    18    2
    36    17    19   am
    37    19    20    1
    38    19    48    1
    39    20    30   ar
    40    20    21   ar
    41    21    22   ar
    42    21    49    1
    43    22    23   ar
    44    22    50    1
    45    23    24   ar
    46    23    51    1
    47    24    25    1
    48    24    30   ar
    49    25    29    1
    50    25    26    2
    51    26    27    1
    52    27    28    1
    53    27    52    1
    54    28    29    2
    55    28    53    1
    56    30    54    1
@<TRIPOS>SUBSTRUCTURE
     1 ZINC000603906271        1 TEMP              0 ****  ****    0 ROOT


##########                                Name:    ZINC000826435081
##########                DOCK_Rotatable_Bonds:                   7
##########                         Heavy_Atoms:                  28
##########                    Molecular_Weight:             388.361
##########                DOCK_Rotatable_Bonds:                   7
##########                       Formal_Charge:           0.0099996
##########                     HBond_Acceptors:                  12
##########                        HBond_Donors:                   3
##########                         Heavy_Atoms:                  28
##########                          Grid_Score:          -31.633553
##########                     Grid_vdw_energy:          -30.523590
##########                      Grid_es_energy:           -1.109963
##########           Internal_energy_repulsive:            9.231988

@<TRIPOS>MOLECULE
ZINC000826435081
 45 48 1 0 0
SMALL
USER_CHARGES


@<TRIPOS>ATOM
      1 O1         -3.6276    3.8219   53.0848 O.2     1  ZINC000826435081   -0.5700
      2 C2         -4.3241    2.9426   52.6155 C.2     1  ZINC000826435081    0.7200
      3 N3         -5.5815    2.7657   53.0671 N.am    1  ZINC000826435081   -0.7300
      4 C4         -6.1071    3.6287   54.1278 C.3     1  ZINC000826435081    0.1500
      5 C5         -7.4074    3.0339   54.6720 C.3     1  ZINC000826435081    0.0400
      6 H6         -7.8093    3.6853   55.4481 H       1  ZINC000826435081    0.0800
      7 C7         -7.1293    1.6477   55.2606 C.3     1  ZINC000826435081    0.0300
      8 O8         -8.3660    1.0528   55.6653 O.3     1  ZINC000826435081   -0.3800
      9 C9         -9.3167    0.9295   54.6032 C.3     1  ZINC000826435081    0.0200
     10 C10        -9.5949    2.3157   54.0145 C.3     1  ZINC000826435081    0.0200
     11 O11        -8.3588    2.9121   53.6102 O.3     1  ZINC000826435081   -0.3700
     12 N12        -3.8406    2.1486   51.6397 N.am    1  ZINC000826435081   -0.6400
     13 C13        -2.5333    2.3325   51.1701 C.2     1  ZINC000826435081    0.3300
     14 N14        -1.6404    1.3878   50.9900 N.2     1  ZINC000826435081   -0.2800
     15 N15        -0.4652    1.9815   50.5117 N.pl3   1  ZINC000826435081   -0.3300
     16 C16         0.7236    1.3151   50.1942 C.ar    1  ZINC000826435081    0.2200
     17 C17         1.7073    1.1494   51.1577 C.ar    1  ZINC000826435081   -0.1300
     18 C18         2.8811    0.4913   50.8437 C.ar    1  ZINC000826435081   -0.0500
     19 C19         3.0839   -0.0059   49.5690 C.ar    1  ZINC000826435081   -0.1500
     20 C20         2.1123    0.1515   48.5974 C.ar    1  ZINC000826435081    0.1500
     21 F21         2.3141   -0.3359   47.3537 F       1  ZINC000826435081   -0.1100
     22 C22         0.9217    0.8085   48.9053 C.ar    1  ZINC000826435081   -0.0500
     23 C23        -0.1246    0.9806   47.8676 C.2     1  ZINC000826435081    0.2100
     24 N24        -0.6924    0.0269   47.1559 N.2     1  ZINC000826435081   -0.2800
     25 N25        -1.5475    0.5803   46.3664 N.pl3   1  ZINC000826435081   -0.2300
     26 N26        -1.5397    1.8537   46.5551 N.2     1  ZINC000826435081   -0.0500
     27 N27        -0.6810    2.1357   47.4752 N.2     1  ZINC000826435081   -0.2300
     28 C28        -0.6834    3.3181   50.4105 C.2     1  ZINC000826435081    0.0700
     29 C29        -1.9542    3.5592   50.8052 C.2     1  ZINC000826435081   -0.2400
     30 H30        -6.1386    2.0668   52.6898 H       1  ZINC000826435081    0.4000
     31 H31        -5.3759    3.7013   54.9329 H       1  ZINC000826435081    0.0800
     32 H32        -6.3030    4.6222   53.7243 H       1  ZINC000826435081    0.0900
     33 H33        -6.6529    1.0208   54.5069 H       1  ZINC000826435081    0.0700
     34 H34        -6.4716    1.7440   56.1244 H       1  ZINC000826435081    0.1100
     35 H35        -8.9139    0.2786   53.8273 H       1  ZINC000826435081    0.0600
     36 H36       -10.2431    0.5059   54.9909 H       1  ZINC000826435081    0.1100
     37 H37       -10.2526    2.2194   53.1507 H       1  ZINC000826435081    0.1100
     38 H38       -10.0713    2.9426   54.7682 H       1  ZINC000826435081    0.0600
     39 H39        -4.3975    1.4498   51.2625 H       1  ZINC000826435081    0.4100
     40 H40         1.5557    1.5357   52.1548 H       1  ZINC000826435081    0.1500
     41 H41         3.6442    0.3647   51.5974 H       1  ZINC000826435081    0.1500
     42 H42         4.0044   -0.5184   49.3315 H       1  ZINC000826435081    0.1500
     43 H43        -2.1090    0.1109   45.7298 H       1  ZINC000826435081    0.4800
     44 H44         0.0286    4.0558   50.0710 H       1  ZINC000826435081    0.1800
     45 H45        -2.4363    4.5250   50.8409 H       1  ZINC000826435081    0.1800
@<TRIPOS>BOND
     1     1     2    2
     2     2     3   am
     3     2    12   am
     4     3     4    1
     5     3    30    1
     6     4     5    1
     7     4    31    1
     8     4    32    1
     9     5     6    1
    10     5    11    1
    11     5     7    1
    12     7     8    1
    13     7    33    1
    14     7    34    1
    15     8     9    1
    16     9    10    1
    17     9    35    1
    18     9    36    1
    19    10    11    1
    20    10    37    1
    21    10    38    1
    22    12    13    1
    23    12    39    1
    24    13    29    1
    25    13    14    2
    26    14    15    1
    27    15    16    1
    28    15    28    1
    29    16    22   ar
    30    16    17   ar
    31    17    18   ar
    32    17    40    1
    33    18    19   ar
    34    18    41    1
    35    19    20   ar
    36    19    42    1
    37    20    21    1
    38    20    22   ar
    39    22    23    1
    40    23    27    1
    41    23    24    2
    42    24    25    1
    43    25    26    1
    44    25    43    1
    45    26    27    2
    46    28    29    2
    47    28    44    1
    48    29    45    1
@<TRIPOS>SUBSTRUCTURE
     1 ZINC000826435081        1 TEMP              0 ****  ****    0 ROOT


##########                                Name:    ZINC001271977984
##########                DOCK_Rotatable_Bonds:                   7
##########                         Heavy_Atoms:                  24
##########                    Molecular_Weight:             328.371
##########                DOCK_Rotatable_Bonds:                   7
##########                       Formal_Charge:           0.0200001
##########                     HBond_Acceptors:                   7
##########                        HBond_Donors:                   0
##########                         Heavy_Atoms:                  24
##########                          Grid_Score:          -31.632042
##########                     Grid_vdw_energy:          -30.389332
##########                      Grid_es_energy:           -1.242710
##########           Internal_energy_repulsive:           16.674238

@<TRIPOS>MOLECULE
ZINC001271977984
 44 46 1 0 0
SMALL
USER_CHARGES


@<TRIPOS>ATOM
      1 C1        -12.6998   -0.9670   51.6938 C.3     1  ZINC001271977984   -0.1800
      2 C2        -11.6377   -2.0177   52.0242 C.3     1  ZINC001271977984    0.1700
      3 H3        -11.6475   -2.7964   51.2616 H       1  ZINC001271977984    0.1100
      4 C4        -10.2797   -1.3656   52.0590 C.2     1  ZINC001271977984    0.2700
      5 N5         -9.1492   -1.9995   51.9707 N.2     1  ZINC001271977984   -0.4700
      6 C6         -8.1337   -1.0965   52.0376 C.ar    1  ZINC001271977984    0.0200
      7 C7         -6.7428   -1.2021   51.9963 C.ar    1  ZINC001271977984   -0.0600
      8 C8         -5.9685   -0.0672   52.0921 C.ar    1  ZINC001271977984   -0.1200
      9 C9         -6.5625    1.1785   52.2291 C.ar    1  ZINC001271977984   -0.0900
     10 C10        -7.9361    1.2978   52.2719 C.ar    1  ZINC001271977984   -0.0900
     11 C11        -8.7308    0.1660   52.1764 C.ar    1  ZINC001271977984    0.0100
     12 O12       -10.0653   -0.0460   52.1799 O.3     1  ZINC001271977984   -0.2100
     13 N13       -11.9290   -2.6128   53.3354 N.3     1  ZINC001271977984   -0.5300
     14 C14       -11.3889   -3.9758   53.4266 C.3     1  ZINC001271977984    0.0000
     15 C15       -11.4149   -1.7690   54.4224 C.3     1  ZINC001271977984    0.0400
     16 C16       -12.2830   -1.9570   55.6681 C.3     1  ZINC001271977984    0.1200
     17 N17       -11.4248   -2.0502   56.8519 N.am    1  ZINC001271977984   -0.6000
     18 C18       -11.1239   -3.3591   57.4371 C.3     1  ZINC001271977984    0.0800
     19 C19       -10.9123   -0.9319   57.4024 C.2     1  ZINC001271977984    0.6000
     20 O20       -11.1622    0.1545   56.9166 O.2     1  ZINC001271977984   -0.5300
     21 C21       -10.0488   -1.0257   58.5936 C.2     1  ZINC001271977984   -0.0800
     22 C22       -10.1024   -0.2292   59.6957 C.2     1  ZINC001271977984    0.0200
     23 O23        -9.1458   -0.6573   60.5349 O.3     1  ZINC001271977984   -0.2000
     24 C24        -8.5182   -1.6938   59.9614 C.2     1  ZINC001271977984    0.1800
     25 N25        -9.0521   -1.9287   58.8004 N.2     1  ZINC001271977984   -0.4600
     26 H26       -13.6820   -1.4387   51.6686 H       1  ZINC001271977984    0.0800
     27 H27       -12.6900   -0.1883   52.4564 H       1  ZINC001271977984    0.0800
     28 H28       -12.4837   -0.5255   50.7209 H       1  ZINC001271977984    0.0700
     29 H29        -6.2754   -2.1699   51.8900 H       1  ZINC001271977984    0.1400
     30 H30        -4.8920   -0.1478   52.0605 H       1  ZINC001271977984    0.1400
     31 H31        -5.9450    2.0616   52.3033 H       1  ZINC001271977984    0.1400
     32 H32        -8.3916    2.2712   52.3788 H       1  ZINC001271977984    0.1400
     33 H33       -10.3081   -3.9485   53.2874 H       1  ZINC001271977984    0.0300
     34 H34       -11.6187   -4.3928   54.4070 H       1  ZINC001271977984    0.0700
     35 H35       -11.8392   -4.5976   52.6527 H       1  ZINC001271977984    0.1100
     36 H36       -10.3875   -2.0544   54.6490 H       1  ZINC001271977984    0.0500
     37 H37       -11.4421   -0.7236   54.1149 H       1  ZINC001271977984    0.0800
     38 H38       -12.9563   -1.1064   55.7735 H       1  ZINC001271977984    0.0900
     39 H39       -12.8666   -2.8724   55.5696 H       1  ZINC001271977984    0.0900
     40 H40       -10.1739   -3.7226   57.0452 H       1  ZINC001271977984    0.0600
     41 H41       -11.0579   -3.2659   58.5211 H       1  ZINC001271977984    0.0900
     42 H42       -11.9159   -4.0627   57.1805 H       1  ZINC001271977984    0.0700
     43 H43       -10.7842    0.5913   59.8634 H       1  ZINC001271977984    0.2300
     44 H44        -7.7003   -2.2483   60.3972 H       1  ZINC001271977984    0.2600
@<TRIPOS>BOND
     1     1     2    1
     2     1    26    1
     3     1    27    1
     4     1    28    1
     5     2     3    1
     6     2     4    1
     7     2    13    1
     8     4    12    1
     9     4     5    2
    10     5     6    1
    11     6    11   ar
    12     6     7   ar
    13     7     8   ar
    14     7    29    1
    15     8     9   ar
    16     8    30    1
    17     9    10   ar
    18     9    31    1
    19    10    11   ar
    20    10    32    1
    21    11    12    1
    22    13    14    1
    23    13    15    1
    24    14    33    1
    25    14    34    1
    26    14    35    1
    27    15    16    1
    28    15    36    1
    29    15    37    1
    30    16    17    1
    31    16    38    1
    32    16    39    1
    33    17    18    1
    34    17    19   am
    35    18    40    1
    36    18    41    1
    37    18    42    1
    38    19    20    2
    39    19    21    1
    40    21    25    1
    41    21    22    2
    42    22    23    1
    43    22    43    1
    44    23    24    1
    45    24    25    2
    46    24    44    1
@<TRIPOS>SUBSTRUCTURE
     1 ZINC001271977984        1 TEMP              0 ****  ****    0 ROOT


##########                                Name:    ZINC000533131987
##########                DOCK_Rotatable_Bonds:                  11
##########                         Heavy_Atoms:                  30
##########                    Molecular_Weight:             419.403
##########                DOCK_Rotatable_Bonds:                  11
##########                       Formal_Charge:                0.01
##########                     HBond_Acceptors:                   9
##########                        HBond_Donors:                   3
##########                         Heavy_Atoms:                  30
##########                          Grid_Score:          -31.615055
##########                     Grid_vdw_energy:          -30.401810
##########                      Grid_es_energy:           -1.213245
##########           Internal_energy_repulsive:           27.228529

@<TRIPOS>MOLECULE
ZINC000533131987
 50 52 1 0 0
SMALL
USER_CHARGES


@<TRIPOS>ATOM
      1 O1         -2.3643    1.7338   48.9340 O.2     1  ZINC000533131987   -0.5700
      2 C2         -1.3787    1.5585   49.6240 C.2     1  ZINC000533131987    0.7100
      3 N3         -0.2191    1.1712   49.0567 N.am    1  ZINC000533131987   -0.7400
      4 C4         -0.1478    0.9556   47.6095 C.3     1  ZINC000533131987    0.1400
      5 C5          1.3148    0.9828   47.1613 C.3     1  ZINC000533131987   -0.0900
      6 H6          1.9567    1.1527   48.0258 H       1  ZINC000533131987    0.0900
      7 C7          1.6748   -0.3559   46.5140 C.3     1  ZINC000533131987    0.0800
      8 O8          3.0756   -0.3879   46.2332 O.3     1  ZINC000533131987   -0.5600
      9 C9          1.5166    2.1104   46.1469 C.3     1  ZINC000533131987   -0.0900
     10 C10         1.6683    3.4206   46.8758 C.ar    1  ZINC000533131987    0.0000
     11 C11         0.5485    4.0975   47.3209 C.ar    1  ZINC000533131987   -0.1100
     12 C12         0.6877    5.2996   47.9896 C.ar    1  ZINC000533131987   -0.0800
     13 C13         1.9467    5.8241   48.2135 C.ar    1  ZINC000533131987   -0.1300
     14 C14         3.0669    5.1465   47.7690 C.ar    1  ZINC000533131987   -0.0700
     15 C15         2.9280    3.9427   47.1043 C.ar    1  ZINC000533131987   -0.1700
     16 C16         4.1490    3.2041   46.6199 C.3     1  ZINC000533131987    0.5100
     17 F17         4.1544    1.9113   47.1543 F       1  ZINC000533131987   -0.1800
     18 F18         4.1264    3.1313   45.2230 F       1  ZINC000533131987   -0.1700
     19 F19         5.2997    3.8843   47.0329 F       1  ZINC000533131987   -0.1800
     20 N20        -1.4443    1.7568   50.9555 N.am    1  ZINC000533131987   -0.6900
     21 C21        -2.6486    2.1591   51.5447 C.ar    1  ZINC000533131987    0.1600
     22 C22        -2.7540    3.4202   52.1183 C.ar    1  ZINC000533131987   -0.1000
     23 C23        -3.9413    3.8224   52.7015 C.ar    1  ZINC000533131987   -0.1000
     24 C24        -5.0294    2.9741   52.7178 C.ar    1  ZINC000533131987   -0.1000
     25 C25        -4.9335    1.7048   52.1441 C.ar    1  ZINC000533131987    0.0000
     26 C26        -6.0979    0.7940   52.1597 C.2     1  ZINC000533131987    0.2300
     27 N27        -6.0628   -0.4983   51.9348 N.2     1  ZINC000533131987   -0.4700
     28 C28        -7.3088   -0.9852   52.0353 C.2     1  ZINC000533131987   -0.0400
     29 C29        -8.1293    0.0397   52.3301 C.2     1  ZINC000533131987   -0.0700
     30 O30        -7.3694    1.1497   52.4123 O.3     1  ZINC000533131987   -0.2000
     31 C31        -3.7377    1.3015   51.5508 C.ar    1  ZINC000533131987   -0.1000
     32 H32         0.5682    1.0351   49.6068 H       1  ZINC000533131987    0.4000
     33 H33        -0.5850   -0.0123   47.3643 H       1  ZINC000533131987    0.0700
     34 H34        -0.6995    1.7438   47.0971 H       1  ZINC000533131987    0.0800
     35 H35         1.4222   -1.1685   47.1953 H       1  ZINC000533131987    0.0400
     36 H36         1.1155   -0.4729   45.5859 H       1  ZINC000533131987    0.0600
     37 H37         3.5891   -0.9231   46.8537 H       1  ZINC000533131987    0.3800
     38 H38         2.4142    1.9149   45.5602 H       1  ZINC000533131987    0.0800
     39 H39         0.6530    2.1613   45.4838 H       1  ZINC000533131987    0.0900
     40 H40        -0.4353    3.6876   47.1459 H       1  ZINC000533131987    0.1300
     41 H41        -0.1874    5.8289   48.3367 H       1  ZINC000533131987    0.1300
     42 H42         2.0554    6.7635   48.7352 H       1  ZINC000533131987    0.1300
     43 H43         4.0506    5.5565   47.9437 H       1  ZINC000533131987    0.1300
     44 H44        -0.6570    1.6208   51.5056 H       1  ZINC000533131987    0.4100
     45 H45        -1.9056    4.0885   52.1088 H       1  ZINC000533131987    0.1500
     46 H46        -4.0172    4.8037   53.1461 H       1  ZINC000533131987    0.1400
     47 H47        -5.9550    3.2917   53.1747 H       1  ZINC000533131987    0.1300
     48 H48        -7.6014   -2.0164   51.9030 H       1  ZINC000533131987    0.1900
     49 H49        -9.1976   -0.0173   52.4776 H       1  ZINC000533131987    0.2200
     50 H50        -3.6576    0.3209   51.1054 H       1  ZINC000533131987    0.1400
@<TRIPOS>BOND
     1     1     2    2
     2     2     3   am
     3     2    20   am
     4     3     4    1
     5     3    32    1
     6     4     5    1
     7     4    33    1
     8     4    34    1
     9     5     6    1
    10     5     7    1
    11     5     9    1
    12     7     8    1
    13     7    35    1
    14     7    36    1
    15     8    37    1
    16     9    10    1
    17     9    38    1
    18     9    39    1
    19    10    15   ar
    20    10    11   ar
    21    11    12   ar
    22    11    40    1
    23    12    13   ar
    24    12    41    1
    25    13    14   ar
    26    13    42    1
    27    14    15   ar
    28    14    43    1
    29    15    16    1
    30    16    17    1
    31    16    18    1
    32    16    19    1
    33    20    21    1
    34    20    44    1
    35    21    31   ar
    36    21    22   ar
    37    22    23   ar
    38    22    45    1
    39    23    24   ar
    40    23    46    1
    41    24    25   ar
    42    24    47    1
    43    25    26    1
    44    25    31   ar
    45    26    30    1
    46    26    27    2
    47    27    28    1
    48    28    29    2
    49    28    48    1
    50    29    30    1
    51    29    49    1
    52    31    50    1
@<TRIPOS>SUBSTRUCTURE
     1 ZINC000533131987        1 TEMP              0 ****  ****    0 ROOT


##########                                Name:    ZINC000504638019
##########                DOCK_Rotatable_Bonds:                   8
##########                         Heavy_Atoms:                  24
##########                    Molecular_Weight:             328.454
##########                DOCK_Rotatable_Bonds:                   8
##########                       Formal_Charge:        -1.49012e-08
##########                     HBond_Acceptors:                   4
##########                        HBond_Donors:                   1
##########                         Heavy_Atoms:                  24
##########                          Grid_Score:          -31.563498
##########                     Grid_vdw_energy:          -31.343260
##########                      Grid_es_energy:           -0.220237
##########           Internal_energy_repulsive:           12.209698

@<TRIPOS>MOLECULE
ZINC000504638019
 52 53 1 0 0
SMALL
USER_CHARGES


@<TRIPOS>ATOM
      1 C1         -6.8241    0.8242   51.6215 C.3     1  ZINC000504638019   -0.1200
      2 C2         -8.0765    0.1062   52.0541 C.ar    1  ZINC000504638019   -0.0900
      3 C3         -8.1129   -1.2757   52.0628 C.ar    1  ZINC000504638019   -0.1200
      4 C4         -9.2616   -1.9343   52.4596 C.ar    1  ZINC000504638019   -0.1100
      5 C5        -10.3738   -1.2111   52.8481 C.ar    1  ZINC000504638019   -0.0900
      6 C6        -11.6263   -1.9291   53.2803 C.3     1  ZINC000504638019   -0.0600
      7 H7        -12.3479   -1.2053   53.6588 H       1  ZINC000504638019    0.0900
      8 C8        -12.2272   -2.6708   52.0845 C.3     1  ZINC000504638019   -0.1500
      9 C9        -11.2839   -2.9327   54.3832 C.3     1  ZINC000504638019    0.1300
     10 N10       -12.3405   -2.9224   55.3980 N.am    1  ZINC000504638019   -0.7000
     11 C11       -12.1399   -3.5266   56.5859 C.2     1  ZINC000504638019    0.5100
     12 O12       -11.0847   -4.0805   56.8144 O.2     1  ZINC000504638019   -0.5100
     13 C13       -13.2171   -3.5145   57.6218 C.2     1  ZINC000504638019    0.5100
     14 O14       -13.9775   -4.4553   57.7175 O.2     1  ZINC000504638019   -0.5200
     15 N15       -13.3439   -2.4587   58.4498 N.am    1  ZINC000504638019   -0.5800
     16 C16       -14.3999   -2.4469   59.4652 C.3     1  ZINC000504638019    0.0600
     17 C17       -12.4259   -1.3228   58.3345 C.3     1  ZINC000504638019    0.1100
     18 C18       -11.1794   -1.5865   59.1815 C.3     1  ZINC000504638019   -0.1000
     19 H19       -10.7923   -2.5819   58.9638 H       1  ZINC000504638019    0.0800
     20 C20       -11.5358   -1.4866   60.6663 C.3     1  ZINC000504638019   -0.0800
     21 C21       -10.2869   -1.4785   61.4983 C.2     1  ZINC000504638019   -0.1500
     22 C22        -9.1059   -1.2285   61.0312 C.2     1  ZINC000504638019   -0.1600
     23 C23        -8.8191   -0.9216   59.5905 C.3     1  ZINC000504638019   -0.0900
     24 C24       -10.1081   -0.5358   58.8634 C.3     1  ZINC000504638019   -0.1100
     25 C25       -10.3369    0.1708   52.8408 C.ar    1  ZINC000504638019   -0.1100
     26 C26        -9.1869    0.8294   52.4475 C.ar    1  ZINC000504638019   -0.1200
     27 H27        -6.1830    0.9902   52.4872 H       1  ZINC000504638019    0.0700
     28 H28        -6.2932    0.2184   50.8871 H       1  ZINC000504638019    0.0700
     29 H29        -7.0902    1.7832   51.1772 H       1  ZINC000504638019    0.0700
     30 H30        -7.2440   -1.8407   51.7593 H       1  ZINC000504638019    0.1200
     31 H31        -9.2903   -3.0139   52.4658 H       1  ZINC000504638019    0.1200
     32 H32       -13.1331   -3.1902   52.3971 H       1  ZINC000504638019    0.0600
     33 H33       -12.4711   -1.9559   51.2988 H       1  ZINC000504638019    0.0600
     34 H34       -11.5056   -3.3947   51.7059 H       1  ZINC000504638019    0.0600
     35 H35       -11.2026   -3.9311   53.9536 H       1  ZINC000504638019    0.0800
     36 H36       -10.3352   -2.6569   54.8437 H       1  ZINC000504638019    0.0800
     37 H37       -13.1845   -2.4805   55.2150 H       1  ZINC000504638019    0.4100
     38 H38       -14.0600   -2.9863   60.3493 H       1  ZINC000504638019    0.0600
     39 H39       -14.6327   -1.4169   59.7354 H       1  ZINC000504638019    0.0700
     40 H40       -15.2927   -2.9287   59.0666 H       1  ZINC000504638019    0.1100
     41 H41       -12.1361   -1.1944   57.2916 H       1  ZINC000504638019    0.0900
     42 H42       -12.9208   -0.4183   58.6880 H       1  ZINC000504638019    0.0900
     43 H43       -12.0935   -0.5667   60.8429 H       1  ZINC000504638019    0.0800
     44 H44       -12.1523   -2.3401   60.9481 H       1  ZINC000504638019    0.0600
     45 H45       -10.3793   -1.6946   62.5524 H       1  ZINC000504638019    0.1000
     46 H46        -8.2752   -1.2412   61.7212 H       1  ZINC000504638019    0.1000
     47 H47        -8.1090   -0.0967   59.5312 H       1  ZINC000504638019    0.0700
     48 H48        -8.3885   -1.8013   59.1124 H       1  ZINC000504638019    0.0700
     49 H49        -9.9270   -0.5035   57.7890 H       1  ZINC000504638019    0.0700
     50 H50       -10.4465    0.4405   59.2105 H       1  ZINC000504638019    0.0700
     51 H51       -11.2057    0.7359   53.1447 H       1  ZINC000504638019    0.1200
     52 H52        -9.1581    1.9089   52.4418 H       1  ZINC000504638019    0.1200
@<TRIPOS>BOND
     1     1     2    1
     2     1    27    1
     3     1    28    1
     4     1    29    1
     5     2    26   ar
     6     2     3   ar
     7     3     4   ar
     8     3    30    1
     9     4     5   ar
    10     4    31    1
    11     5     6    1
    12     5    25   ar
    13     6     7    1
    14     6     8    1
    15     6     9    1
    16     8    32    1
    17     8    33    1
    18     8    34    1
    19     9    10    1
    20     9    35    1
    21     9    36    1
    22    10    11   am
    23    10    37    1
    24    11    12    2
    25    11    13    1
    26    13    14    2
    27    13    15   am
    28    15    16    1
    29    15    17    1
    30    16    38    1
    31    16    39    1
    32    16    40    1
    33    17    18    1
    34    17    41    1
    35    17    42    1
    36    18    19    1
    37    18    24    1
    38    18    20    1
    39    20    21    1
    40    20    43    1
    41    20    44    1
    42    21    22    2
    43    21    45    1
    44    22    23    1
    45    22    46    1
    46    23    24    1
    47    23    47    1
    48    23    48    1
    49    24    49    1
    50    24    50    1
    51    25    26   ar
    52    25    51    1
    53    26    52    1
@<TRIPOS>SUBSTRUCTURE
     1 ZINC000504638019        1 TEMP              0 ****  ****    0 ROOT


##########                                Name:    ZINC000967287417
##########                DOCK_Rotatable_Bonds:                   7
##########                         Heavy_Atoms:                  25
##########                    Molecular_Weight:             347.414
##########                DOCK_Rotatable_Bonds:                   7
##########                       Formal_Charge:          -0.0200002
##########                     HBond_Acceptors:                   7
##########                        HBond_Donors:                   1
##########                         Heavy_Atoms:                  25
##########                          Grid_Score:          -31.562952
##########                     Grid_vdw_energy:          -31.017859
##########                      Grid_es_energy:           -0.545094
##########           Internal_energy_repulsive:            7.395546

@<TRIPOS>MOLECULE
ZINC000967287417
 50 52 1 0 0
SMALL
USER_CHARGES


@<TRIPOS>ATOM
      1 C1         -3.3963    1.5680   51.2883 C.3     1  ZINC000967287417    0.0300
      2 O2         -4.5928    0.9979   51.8225 O.3     1  ZINC000967287417   -0.3900
      3 C3         -5.4936    1.9559   52.3819 C.3     1  ZINC000967287417    0.1400
      4 C4         -6.7390    1.2550   52.8602 C.2     1  ZINC000967287417    0.0100
      5 C5         -7.4745    1.6056   53.9382 C.2     1  ZINC000967287417   -0.1900
      6 C6         -8.5403    0.6963   54.0246 C.2     1  ZINC000967287417   -0.1200
      7 C7         -8.3993   -0.1740   52.9819 C.2     1  ZINC000967287417   -0.0700
      8 C8         -9.2878   -1.2988   52.6720 C.2     1  ZINC000967287417    0.6100
      9 O9         -8.9028   -2.1961   51.9456 O.2     1  ZINC000967287417   -0.5200
     10 N10       -10.5307   -1.3389   53.1916 N.am    1  ZINC000967287417   -0.7000
     11 C11       -11.4176   -2.4635   52.8835 C.3     1  ZINC000967287417    0.1600
     12 H12       -11.0503   -2.9851   51.9997 H       1  ZINC000967287417    0.1000
     13 C13       -11.4495   -3.4291   54.0703 C.3     1  ZINC000967287417    0.0400
     14 N14       -11.9633   -2.7322   55.2563 N.3     1  ZINC000967287417   -0.5300
     15 C15       -11.8784   -3.5877   56.4475 C.3     1  ZINC000967287417    0.1300
     16 C16       -11.0020   -2.9261   57.4796 C.2     1  ZINC000967287417    0.0200
     17 N17       -10.4370   -3.4966   58.5042 N.2     1  ZINC000967287417   -0.3500
     18 O18        -9.7919   -2.7068   59.1541 O.3     1  ZINC000967287417    0.1000
     19 C19        -9.8477   -1.4749   58.6289 C.2     1  ZINC000967287417   -0.0300
     20 C20        -9.1726   -0.2364   59.1596 C.3     1  ZINC000967287417   -0.0800
     21 C21       -10.6256   -1.5640   57.5236 C.2     1  ZINC000967287417   -0.2400
     22 C22       -13.3382   -2.2628   55.0423 C.3     1  ZINC000967287417    0.0500
     23 C23       -13.3626   -1.2624   53.8846 C.3     1  ZINC000967287417   -0.1100
     24 C24       -12.8321   -1.9410   52.6177 C.3     1  ZINC000967287417   -0.1000
     25 H25       -13.4835   -2.7730   52.3501 H       1  ZINC000967287417    0.0900
     26 C26       -12.7988   -0.9285   51.4710 C.3     1  ZINC000967287417   -0.1500
     27 O27        -7.3024    0.1855   52.2835 O.3     1  ZINC000967287417   -0.1600
     28 H28        -2.8587    2.0914   52.0789 H       1  ZINC000967287417    0.0500
     29 H29        -2.7660    0.7762   50.8831 H       1  ZINC000967287417    0.0900
     30 H30        -3.6513    2.2710   50.4953 H       1  ZINC000967287417    0.0500
     31 H31        -5.0141    2.4583   53.2220 H       1  ZINC000967287417    0.0900
     32 H32        -5.7594    2.6913   51.6225 H       1  ZINC000967287417    0.0700
     33 H33        -7.2791    2.4304   54.6074 H       1  ZINC000967287417    0.1600
     34 H34        -9.3206    0.6867   54.7712 H       1  ZINC000967287417    0.1600
     35 H35       -10.8380   -0.6231   53.7697 H       1  ZINC000967287417    0.4100
     36 H36       -12.0987   -4.2725   53.8350 H       1  ZINC000967287417    0.0500
     37 H37       -10.4413   -3.7919   54.2706 H       1  ZINC000967287417    0.0900
     38 H38       -12.8764   -3.7366   56.8598 H       1  ZINC000967287417    0.0600
     39 H39       -11.4513   -4.5521   56.1726 H       1  ZINC000967287417    0.0900
     40 H40        -8.6128   -0.4857   60.0609 H       1  ZINC000967287417    0.0800
     41 H41        -8.4909    0.1572   58.4056 H       1  ZINC000967287417    0.0900
     42 H42        -9.9260    0.5150   59.3960 H       1  ZINC000967287417    0.0900
     43 H43       -10.9002   -0.7758   56.8383 H       1  ZINC000967287417    0.1700
     44 H44       -13.9785   -3.1116   54.8025 H       1  ZINC000967287417    0.0400
     45 H45       -13.7018   -1.7785   55.9487 H       1  ZINC000967287417    0.0800
     46 H46       -14.3857   -0.9260   53.7158 H       1  ZINC000967287417    0.0700
     47 H47       -12.7335   -0.4067   54.1296 H       1  ZINC000967287417    0.0700
     48 H48       -12.1454   -0.0981   51.7385 H       1  ZINC000967287417    0.0600
     49 H49       -12.4212   -1.4123   50.5701 H       1  ZINC000967287417    0.0600
     50 H50       -13.8058   -0.5541   51.2875 H       1  ZINC000967287417    0.0600
@<TRIPOS>BOND
     1     1     2    1
     2     1    28    1
     3     1    29    1
     4     1    30    1
     5     2     3    1
     6     3     4    1
     7     3    31    1
     8     3    32    1
     9     4    27    1
    10     4     5    2
    11     5     6    1
    12     5    33    1
    13     6     7    2
    14     6    34    1
    15     7     8    1
    16     7    27    1
    17     8     9    2
    18     8    10   am
    19    10    11    1
    20    10    35    1
    21    11    12    1
    22    11    24    1
    23    11    13    1
    24    13    14    1
    25    13    36    1
    26    13    37    1
    27    14    15    1
    28    14    22    1
    29    15    16    1
    30    15    38    1
    31    15    39    1
    32    16    21    1
    33    16    17    2
    34    17    18    1
    35    18    19    1
    36    19    20    1
    37    19    21    2
    38    20    40    1
    39    20    41    1
    40    20    42    1
    41    21    43    1
    42    22    23    1
    43    22    44    1
    44    22    45    1
    45    23    24    1
    46    23    46    1
    47    23    47    1
    48    24    25    1
    49    24    26    1
    50    26    48    1
    51    26    49    1
    52    26    50    1
@<TRIPOS>SUBSTRUCTURE
     1 ZINC000967287417        1 TEMP              0 ****  ****    0 ROOT


##########                                Name:    ZINC000265786263
##########                DOCK_Rotatable_Bonds:                   7
##########                         Heavy_Atoms:                  28
##########                    Molecular_Weight:             386.451
##########                DOCK_Rotatable_Bonds:                   7
##########                       Formal_Charge:           0.0499992
##########                     HBond_Acceptors:                   8
##########                        HBond_Donors:                   2
##########                         Heavy_Atoms:                  28
##########                          Grid_Score:          -31.547712
##########                     Grid_vdw_energy:          -29.336775
##########                      Grid_es_energy:           -2.210938
##########           Internal_energy_repulsive:           24.463627

@<TRIPOS>MOLECULE
ZINC000265786263
 54 57 1 0 0
SMALL
USER_CHARGES


@<TRIPOS>ATOM
      1 C1        -11.7942   -0.5650   61.9459 C.3     1  ZINC000265786263   -0.1500
      2 C2        -10.3176   -0.1951   61.7913 C.3     1  ZINC000265786263    0.1600
      3 C3         -9.7664    0.3716   63.1013 C.3     1  ZINC000265786263   -0.1600
      4 C4         -8.2974    0.0954   63.4277 C.3     1  ZINC000265786263   -0.1600
      5 C5         -8.7363    1.4988   63.0052 C.3     1  ZINC000265786263   -0.1600
      6 N6         -9.5331   -1.3641   61.3579 N.am    1  ZINC000265786263   -0.7100
      7 C7         -8.9999   -1.0484   60.1638 C.2     1  ZINC000265786263    0.7100
      8 O8         -8.2900   -1.7973   59.5216 O.2     1  ZINC000265786263   -0.5400
      9 N9         -9.3381    0.1823   59.7624 N.am    1  ZINC000265786263   -0.5600
     10 C10        -8.9003    0.7860   58.5014 C.3     1  ZINC000265786263    0.1000
     11 C11       -10.0899    0.9766   57.5960 C.2     1  ZINC000265786263    0.5100
     12 O12       -11.1411    0.4288   57.8524 O.2     1  ZINC000265786263   -0.5300
     13 N13        -9.9856    1.7561   56.5014 N.am    1  ZINC000265786263   -0.6100
     14 C14        -8.7180    2.4233   56.1678 C.3     1  ZINC000265786263    0.1100
     15 C15        -8.3728    2.1106   54.7080 C.3     1  ZINC000265786263    0.0400
     16 N16        -9.5096    2.4726   53.8509 N.3     1  ZINC000265786263   -0.5300
     17 C17        -9.1577    2.3499   52.4300 C.3     1  ZINC000265786263    0.0900
     18 C18        -8.3152    1.1172   52.2257 C.ar    1  ZINC000265786263   -0.0600
     19 C19        -8.9193   -0.1210   52.1115 C.ar    1  ZINC000265786263   -0.1300
     20 C20        -8.1490   -1.2541   51.9240 C.ar    1  ZINC000265786263   -0.1000
     21 C21        -6.7736   -1.1512   51.8504 C.ar    1  ZINC000265786263   -0.1400
     22 C22        -6.1650    0.0905   51.9648 C.ar    1  ZINC000265786263    0.1100
     23 O23        -4.8118    0.1943   51.8924 O.3     1  ZINC000265786263   -0.5000
     24 C24        -6.9401    1.2262   52.1472 C.ar    1  ZINC000265786263   -0.1200
     25 C25       -10.6957    1.6674   54.1710 C.3     1  ZINC000265786263    0.0400
     26 C26       -11.1345    1.9569   55.6055 C.3     1  ZINC000265786263    0.1200
     27 C27       -10.1321    0.7976   60.6608 C.2     1  ZINC000265786263    0.5400
     28 O28       -10.6011    1.9127   60.5812 O.2     1  ZINC000265786263   -0.4500
     29 H29       -12.1588   -1.0012   61.0159 H       1  ZINC000265786263    0.0700
     30 H30       -11.9049   -1.2878   62.7542 H       1  ZINC000265786263    0.0800
     31 H31       -12.3708    0.3305   62.1778 H       1  ZINC000265786263    0.0900
     32 H32       -10.4701    0.4024   63.9331 H       1  ZINC000265786263    0.1100
     33 H33        -8.0344   -0.0558   64.4747 H       1  ZINC000265786263    0.1000
     34 H34        -7.7236   -0.4901   62.7094 H       1  ZINC000265786263    0.1100
     35 H35        -8.4513    1.8367   62.0089 H       1  ZINC000265786263    0.1000
     36 H36        -8.7621    2.2709   63.7743 H       1  ZINC000265786263    0.1000
     37 H37        -9.4222   -2.1986   61.8397 H       1  ZINC000265786263    0.4400
     38 H38        -8.4382    1.7525   58.7025 H       1  ZINC000265786263    0.1300
     39 H39        -8.1763    0.1309   58.0170 H       1  ZINC000265786263    0.1300
     40 H40        -8.8264    3.5003   56.2958 H       1  ZINC000265786263    0.0900
     41 H41        -7.9265    2.0522   56.8189 H       1  ZINC000265786263    0.0900
     42 H42        -7.4956    2.6853   54.4106 H       1  ZINC000265786263    0.0900
     43 H43        -8.1631    1.0461   54.6038 H       1  ZINC000265786263    0.0400
     44 H44       -10.0681    2.2704   51.8358 H       1  ZINC000265786263    0.0900
     45 H45        -8.5957    3.2299   52.1175 H       1  ZINC000265786263    0.0500
     46 H46        -9.9946   -0.2036   52.1691 H       1  ZINC000265786263    0.1200
     47 H47        -8.6233   -2.2203   51.8353 H       1  ZINC000265786263    0.1300
     48 H48        -6.1725   -2.0365   51.7043 H       1  ZINC000265786263    0.1300
     49 H49        -4.4814    1.0987   51.9820 H       1  ZINC000265786263    0.3900
     50 H50        -6.4686    2.1937   52.2366 H       1  ZINC000265786263    0.1300
     51 H51       -11.5034    1.9205   53.4840 H       1  ZINC000265786263    0.1000
     52 H52       -10.4538    0.6090   54.0742 H       1  ZINC000265786263    0.0400
     53 H53       -11.9418    1.2800   55.8852 H       1  ZINC000265786263    0.1000
     54 H54       -11.4754    2.9894   55.6828 H       1  ZINC000265786263    0.0800
@<TRIPOS>BOND
     1     1     2    1
     2     1    29    1
     3     1    30    1
     4     1    31    1
     5     2    27    1
     6     2     3    1
     7     2     6    1
     8     3     5    1
     9     3     4    1
    10     3    32    1
    11     4     5    1
    12     4    33    1
    13     4    34    1
    14     5    35    1
    15     5    36    1
    16     6     7   am
    17     6    37    1
    18     7     8    2
    19     7     9   am
    20     9    10    1
    21     9    27   am
    22    10    11    1
    23    10    38    1
    24    10    39    1
    25    11    12    2
    26    11    13   am
    27    13    26    1
    28    13    14    1
    29    14    15    1
    30    14    40    1
    31    14    41    1
    32    15    16    1
    33    15    42    1
    34    15    43    1
    35    16    17    1
    36    16    25    1
    37    17    18    1
    38    17    44    1
    39    17    45    1
    40    18    24   ar
    41    18    19   ar
    42    19    20   ar
    43    19    46    1
    44    20    21   ar
    45    20    47    1
    46    21    22   ar
    47    21    48    1
    48    22    23    1
    49    22    24   ar
    50    23    49    1
    51    24    50    1
    52    25    26    1
    53    25    51    1
    54    25    52    1
    55    26    53    1
    56    26    54    1
    57    27    28    2
@<TRIPOS>SUBSTRUCTURE
     1 ZINC000265786263        1 TEMP              0 ****  ****    0 ROOT


##########                                Name:    ZINC000429196987
##########                DOCK_Rotatable_Bonds:                   7
##########                         Heavy_Atoms:                  28
##########                    Molecular_Weight:             403.505
##########                DOCK_Rotatable_Bonds:                   7
##########                       Formal_Charge:          -0.0399997
##########                     HBond_Acceptors:                   9
##########                        HBond_Donors:                   1
##########                         Heavy_Atoms:                  28
##########                          Grid_Score:          -31.514647
##########                     Grid_vdw_energy:          -32.433792
##########                      Grid_es_energy:            0.919145
##########           Internal_energy_repulsive:           11.640313

@<TRIPOS>MOLECULE
ZINC000429196987
 53 55 1 0 0
SMALL
USER_CHARGES


@<TRIPOS>ATOM
      1 C1        -14.7326   -3.1835   57.6748 C.3     1  ZINC000429196987    0.0800
      2 N2        -13.3574   -3.6296   57.4380 N.am    1  ZINC000429196987   -0.6300
      3 C3        -13.0618   -4.5314   56.3219 C.3     1  ZINC000429196987    0.1600
      4 C4        -12.6893   -3.7216   55.1069 C.ar    1  ZINC000429196987   -0.0600
      5 C5        -11.3730   -3.3548   54.8977 C.ar    1  ZINC000429196987   -0.1300
      6 C6        -11.0314   -2.6119   53.7830 C.ar    1  ZINC000429196987   -0.0300
      7 C7        -12.0058   -2.2363   52.8774 C.ar    1  ZINC000429196987   -0.6600
      8 S8        -11.5704   -1.2891   51.4569 S.o2    1  ZINC000429196987    2.5000
      9 C9        -11.6741    0.4345   52.0129 C.3     1  ZINC000429196987   -0.6500
     10 O10       -10.2205   -1.6485   51.1964 O.2     1  ZINC000429196987   -0.9400
     11 O11       -12.5984   -1.5728   50.5178 O.2     1  ZINC000429196987   -0.9400
     12 C12       -13.3218   -2.6044   53.0859 C.ar    1  ZINC000429196987   -0.0300
     13 C13       -13.6630   -3.3504   54.1985 C.ar    1  ZINC000429196987   -0.1100
     14 C14       -12.3642   -3.2104   58.2468 C.2     1  ZINC000429196987    0.7100
     15 O15       -11.2227   -3.5794   58.0494 O.2     1  ZINC000429196987   -0.5800
     16 N16       -12.6364   -2.3820   59.2745 N.am    1  ZINC000429196987   -0.7400
     17 C17       -11.5571   -1.9277   60.1548 C.3     1  ZINC000429196987    0.1600
     18 C18       -10.7349   -0.8501   59.4424 C.3     1  ZINC000429196987   -0.1300
     19 C19        -9.6473   -0.3365   60.3885 C.3     1  ZINC000429196987    0.0700
     20 N20       -10.2701    0.2172   61.5976 N.3     1  ZINC000429196987   -0.4700
     21 C21        -9.3195    0.8112   62.4205 C.ar    1  ZINC000429196987    0.2500
     22 C22        -9.0986    2.1864   62.3565 C.ar    1  ZINC000429196987   -0.1300
     23 C23        -8.1402    2.7294   63.1976 C.ar    1  ZINC000429196987   -0.1000
     24 C24        -7.4599    1.8721   64.0509 C.ar    1  ZINC000429196987    0.0200
     25 N25        -7.7330    0.5826   64.0454 N.ar    1  ZINC000429196987   -0.2200
     26 N26        -8.6231    0.0736   63.2732 N.ar    1  ZINC000429196987   -0.2800
     27 C27       -11.0261   -0.8110   62.3239 C.3     1  ZINC000429196987    0.0600
     28 C28       -12.1549   -1.3390   61.4356 C.3     1  ZINC000429196987   -0.1200
     29 H29       -15.2308   -3.8827   58.3464 H       1  ZINC000429196987    0.0600
     30 H30       -14.7201   -2.1918   58.1270 H       1  ZINC000429196987    0.0700
     31 H31       -15.2700   -3.1441   56.7273 H       1  ZINC000429196987    0.0800
     32 H32       -12.2316   -5.1840   56.5922 H       1  ZINC000429196987    0.1000
     33 H33       -13.9415   -5.1355   56.1001 H       1  ZINC000429196987    0.0900
     34 H34       -10.6117   -3.6482   55.6052 H       1  ZINC000429196987    0.1300
     35 H35       -10.0031   -2.3248   53.6198 H       1  ZINC000429196987    0.1400
     36 H36       -10.9782    0.5930   52.8368 H       1  ZINC000429196987    0.1300
     37 H37       -11.4175    1.0985   51.1876 H       1  ZINC000429196987    0.1300
     38 H38       -12.6890    0.6475   52.3485 H       1  ZINC000429196987    0.1300
     39 H39       -14.0833   -2.3113   52.3782 H       1  ZINC000429196987    0.1400
     40 H40       -14.6911   -3.6379   54.3614 H       1  ZINC000429196987    0.1400
     41 H41       -13.5469   -2.0866   59.4313 H       1  ZINC000429196987    0.4000
     42 H42       -10.9137   -2.7707   60.4072 H       1  ZINC000429196987    0.0900
     43 H43       -10.2717   -1.2752   58.5519 H       1  ZINC000429196987    0.0800
     44 H44       -11.3870   -0.0252   59.1555 H       1  ZINC000429196987    0.0700
     45 H45        -8.9874   -1.1591   60.6640 H       1  ZINC000429196987    0.0600
     46 H46        -9.0692    0.4411   59.8892 H       1  ZINC000429196987    0.0900
     47 H47        -9.6565    2.8089   61.6726 H       1  ZINC000429196987    0.1500
     48 H48        -7.9286    3.7885   63.1889 H       1  ZINC000429196987    0.1500
     49 H49        -6.7064    2.2616   64.7195 H       1  ZINC000429196987    0.1700
     50 H50       -10.3597   -1.6314   62.5904 H       1  ZINC000429196987    0.0500
     51 H51       -11.4495   -0.3782   63.2303 H       1  ZINC000429196987    0.0900
     52 H52       -12.8294   -0.5217   61.1801 H       1  ZINC000429196987    0.0800
     53 H53       -12.7062   -2.1131   61.9693 H       1  ZINC000429196987    0.0800
@<TRIPOS>BOND
     1     1     2    1
     2     1    29    1
     3     1    30    1
     4     1    31    1
     5     2     3    1
     6     2    14   am
     7     3     4    1
     8     3    32    1
     9     3    33    1
    10     4    13   ar
    11     4     5   ar
    12     5     6   ar
    13     5    34    1
    14     6     7   ar
    15     6    35    1
    16     7     8    1
    17     7    12   ar
    18     8     9    1
    19     8    10    2
    20     8    11    2
    21     9    36    1
    22     9    37    1
    23     9    38    1
    24    12    13   ar
    25    12    39    1
    26    13    40    1
    27    14    15    2
    28    14    16   am
    29    16    17    1
    30    16    41    1
    31    17    28    1
    32    17    18    1
    33    17    42    1
    34    18    19    1
    35    18    43    1
    36    18    44    1
    37    19    20    1
    38    19    45    1
    39    19    46    1
    40    20    21    1
    41    20    27    1
    42    21    26   ar
    43    21    22   ar
    44    22    23   ar
    45    22    47    1
    46    23    24   ar
    47    23    48    1
    48    24    25   ar
    49    24    49    1
    50    25    26   ar
    51    27    28    1
    52    27    50    1
    53    27    51    1
    54    28    52    1
    55    28    53    1
@<TRIPOS>SUBSTRUCTURE
     1 ZINC000429196987        1 TEMP              0 ****  ****    0 ROOT


##########                                Name:    ZINC000460972051
##########                DOCK_Rotatable_Bonds:                  10
##########                         Heavy_Atoms:                  29
##########                    Molecular_Weight:             417.572
##########                DOCK_Rotatable_Bonds:                  10
##########                       Formal_Charge:         3.31551e-07
##########                     HBond_Acceptors:                   7
##########                        HBond_Donors:                   2
##########                         Heavy_Atoms:                  29
##########                          Grid_Score:          -31.479109
##########                     Grid_vdw_energy:          -30.539928
##########                      Grid_es_energy:           -0.939179
##########           Internal_energy_repulsive:           33.446503

@<TRIPOS>MOLECULE
ZINC000460972051
 60 61 1 0 0
SMALL
USER_CHARGES


@<TRIPOS>ATOM
      1 C1        -16.1015   -2.8478   59.9060 C.3     1  ZINC000460972051   -0.1800
      2 C2        -15.9660   -3.1726   58.4170 C.3     1  ZINC000460972051    0.1000
      3 N3        -14.8929   -2.3618   57.8361 N.am    1  ZINC000460972051   -0.6200
      4 C4        -13.6485   -2.8681   57.7286 C.2     1  ZINC000460972051    0.7100
      5 O5        -13.4168   -3.9983   58.1124 O.2     1  ZINC000460972051   -0.5800
      6 N6        -12.6611   -2.1216   57.1957 N.am    1  ZINC000460972051   -0.7400
      7 C7        -11.3088   -2.6725   57.0772 C.3     1  ZINC000460972051    0.2000
      8 H8        -11.2903   -3.6817   57.4888 H       1  ZINC000460972051    0.1100
      9 C9        -10.9029   -2.7155   55.6027 C.3     1  ZINC000460972051    0.1100
     10 N10       -11.9474   -2.0870   54.7902 N.am    1  ZINC000460972051   -1.1200
     11 S11       -11.8080   -2.0581   53.1403 S.o2    1  ZINC000460972051    2.7000
     12 O12       -11.5970   -3.4027   52.7319 O.2     1  ZINC000460972051   -0.9500
     13 O13       -12.8812   -1.2596   52.6608 O.2     1  ZINC000460972051   -0.9600
     14 C14       -10.3272   -1.1834   52.7572 C.ar    1  ZINC000460972051   -0.6900
     15 C15        -9.2317   -1.8636   52.2601 C.ar    1  ZINC000460972051   -0.0100
     16 C16        -8.0698   -1.1772   51.9595 C.ar    1  ZINC000460972051   -0.1500
     17 C17        -8.0040    0.1894   52.1556 C.ar    1  ZINC000460972051   -0.0200
     18 C18        -6.7374    0.9375   51.8285 C.3     1  ZINC000460972051   -0.1300
     19 C19        -9.1005    0.8701   52.6516 C.ar    1  ZINC000460972051   -0.1500
     20 C20       -10.2632    0.1844   52.9486 C.ar    1  ZINC000460972051    0.0300
     21 C21       -11.4584    0.9264   53.4891 C.3     1  ZINC000460972051   -0.1700
     22 C22       -10.3430   -1.8016   57.8388 C.ar    1  ZINC000460972051   -0.1000
     23 C23       -10.2303   -0.4593   57.5285 C.ar    1  ZINC000460972051   -0.1000
     24 C24        -9.3444    0.3396   58.2271 C.ar    1  ZINC000460972051   -0.1200
     25 C25        -8.5717   -0.2038   59.2363 C.ar    1  ZINC000460972051   -0.1200
     26 C26        -8.6851   -1.5459   59.5472 C.ar    1  ZINC000460972051   -0.1200
     27 C27        -9.5740   -2.3439   58.8515 C.ar    1  ZINC000460972051   -0.1000
     28 C28       -15.1726   -1.0007   57.3720 C.3     1  ZINC000460972051    0.1500
     29 C29       -16.6677   -0.8586   57.0795 C.3     1  ZINC000460972051   -0.1600
     30 C30       -14.7675    0.0010   58.4554 C.3     1  ZINC000460972051   -0.1600
     31 H31       -16.8998   -3.4511   60.3382 H       1  ZINC000460972051    0.0700
     32 H32       -15.1627   -3.0703   60.4132 H       1  ZINC000460972051    0.0600
     33 H33       -16.3384   -1.7909   60.0272 H       1  ZINC000460972051    0.0700
     34 H34       -15.7290   -4.2296   58.2957 H       1  ZINC000460972051    0.0700
     35 H35       -16.9048   -2.9501   57.9097 H       1  ZINC000460972051    0.0900
     36 H36       -12.8457   -1.2195   56.8906 H       1  ZINC000460972051    0.4000
     37 H37        -9.9647   -2.1771   55.4683 H       1  ZINC000460972051    0.0900
     38 H38       -10.7748   -3.7522   55.2913 H       1  ZINC000460972051    0.0900
     39 H39       -12.7207   -1.6878   55.2186 H       1  ZINC000460972051    0.4200
     40 H40        -9.2830   -2.9315   52.1069 H       1  ZINC000460972051    0.1400
     41 H41        -7.2134   -1.7088   51.5718 H       1  ZINC000460972051    0.1300
     42 H42        -6.7705    1.2717   50.7914 H       1  ZINC000460972051    0.0800
     43 H43        -6.6459    1.8020   52.4860 H       1  ZINC000460972051    0.0700
     44 H44        -5.8800    0.2800   51.9712 H       1  ZINC000460972051    0.0700
     45 H45        -9.0493    1.9379   52.8045 H       1  ZINC000460972051    0.1300
     46 H46       -12.1373    1.1667   52.6710 H       1  ZINC000460972051    0.0900
     47 H47       -11.9746    0.3018   54.2182 H       1  ZINC000460972051    0.1000
     48 H48       -11.1276    1.8474   53.9692 H       1  ZINC000460972051    0.0900
     49 H49       -10.8340   -0.0347   56.7401 H       1  ZINC000460972051    0.1200
     50 H50        -9.2558    1.3881   57.9841 H       1  ZINC000460972051    0.1200
     51 H51        -7.8790    0.4202   59.7816 H       1  ZINC000460972051    0.1200
     52 H52        -8.0811   -1.9706   60.3355 H       1  ZINC000460972051    0.1200
     53 H53        -9.6626   -3.3924   59.0944 H       1  ZINC000460972051    0.1200
     54 H54       -14.6042   -0.8027   56.4633 H       1  ZINC000460972051    0.1000
     55 H55       -16.9564   -1.5721   56.3078 H       1  ZINC000460972051    0.0600
     56 H56       -17.2361   -1.0566   57.9883 H       1  ZINC000460972051    0.0600
     57 H57       -16.8758    0.1541   56.7343 H       1  ZINC000460972051    0.0700
     58 H58       -13.7024   -0.1003   58.6638 H       1  ZINC000460972051    0.0600
     59 H59       -14.9755    1.0136   58.1101 H       1  ZINC000460972051    0.0700
     60 H60       -15.3359   -0.1971   59.3641 H       1  ZINC000460972051    0.0600
@<TRIPOS>BOND
     1     1     2    1
     2     1    31    1
     3     1    32    1
     4     1    33    1
     5     2     3    1
     6     2    34    1
     7     2    35    1
     8     3     4   am
     9     3    28    1
    10     4     5    2
    11     4     6   am
    12     6     7    1
    13     6    36    1
    14     7     8    1
    15     7     9    1
    16     7    22    1
    17     9    10    1
    18     9    37    1
    19     9    38    1
    20    10    11   am
    21    10    39    1
    22    11    12    2
    23    11    13    2
    24    11    14    1
    25    14    20   ar
    26    14    15   ar
    27    15    16   ar
    28    15    40    1
    29    16    17   ar
    30    16    41    1
    31    17    18    1
    32    17    19   ar
    33    18    42    1
    34    18    43    1
    35    18    44    1
    36    19    20   ar
    37    19    45    1
    38    20    21    1
    39    21    46    1
    40    21    47    1
    41    21    48    1
    42    22    27   ar
    43    22    23   ar
    44    23    24   ar
    45    23    49    1
    46    24    25   ar
    47    24    50    1
    48    25    26   ar
    49    25    51    1
    50    26    27   ar
    51    26    52    1
    52    27    53    1
    53    28    29    1
    54    28    30    1
    55    28    54    1
    56    29    55    1
    57    29    56    1
    58    29    57    1
    59    30    58    1
    60    30    59    1
    61    30    60    1
@<TRIPOS>SUBSTRUCTURE
     1 ZINC000460972051        1 TEMP              0 ****  ****    0 ROOT


##########                                Name:    ZINC000981048968
##########                DOCK_Rotatable_Bonds:                   7
##########                         Heavy_Atoms:                  25
##########                    Molecular_Weight:             344.414
##########                DOCK_Rotatable_Bonds:                   7
##########                       Formal_Charge:                0.02
##########                     HBond_Acceptors:                   7
##########                        HBond_Donors:                   2
##########                         Heavy_Atoms:                  25
##########                          Grid_Score:          -31.477539
##########                     Grid_vdw_energy:          -30.933159
##########                      Grid_es_energy:           -0.544380
##########           Internal_energy_repulsive:            4.750090

@<TRIPOS>MOLECULE
ZINC000981048968
 49 52 1 0 0
SMALL
USER_CHARGES


@<TRIPOS>ATOM
      1 C1         -8.6095    1.4452   63.1574 C.3     1  ZINC000981048968   -0.0800
      2 C2         -8.9859    0.4928   62.0517 C.2     1  ZINC000981048968   -0.0100
      3 C3        -10.0691    0.6008   61.2672 C.2     1  ZINC000981048968   -0.1600
      4 C4        -10.0161   -0.5435   60.3456 C.2     1  ZINC000981048968   -0.2300
      5 C5        -10.9814   -0.8770   59.2831 C.2     1  ZINC000981048968    0.5900
      6 O6        -12.0446   -0.2898   59.2212 O.2     1  ZINC000981048968   -0.5300
      7 N7        -10.6859   -1.8329   58.3800 N.am    1  ZINC000981048968   -0.7300
      8 C8        -11.6462   -2.1657   57.3248 C.3     1  ZINC000981048968    0.1500
      9 H9        -12.1019   -1.2506   56.9464 H       1  ZINC000981048968    0.0900
     10 C10       -12.7335   -3.0791   57.8945 C.3     1  ZINC000981048968   -0.1300
     11 C11       -13.7364   -3.4267   56.7925 C.3     1  ZINC000981048968   -0.1200
     12 C12       -13.0124   -4.1453   55.6521 C.3     1  ZINC000981048968   -0.1100
     13 C13       -11.9252   -3.2319   55.0825 C.3     1  ZINC000981048968    0.1000
     14 H14       -12.3808   -2.3168   54.7042 H       1  ZINC000981048968    0.0500
     15 N15       -11.2301   -3.9218   53.9877 N.3     1  ZINC000981048968   -0.6800
     16 C16       -11.6320   -3.3781   52.6835 C.3     1  ZINC000981048968    0.1500
     17 C17       -10.7879   -2.1723   52.3603 C.2     1  ZINC000981048968    0.1800
     18 N18       -11.2013   -1.0682   51.8138 N.2     1  ZINC000981048968   -0.3800
     19 O19       -10.2784   -0.2915   51.6865 O.3     1  ZINC000981048968    0.0800
     20 C20        -9.1544   -0.8429   52.1540 C.2     1  ZINC000981048968    0.2100
     21 C21        -7.7873   -0.2094   52.1803 C.3     1  ZINC000981048968   -0.0800
     22 C22        -6.5800   -1.1397   52.3134 C.3     1  ZINC000981048968   -0.1600
     23 C23        -6.8728   -0.4525   50.9781 C.3     1  ZINC000981048968   -0.1500
     24 N24        -9.4694   -2.0389   52.5899 N.2     1  ZINC000981048968   -0.4600
     25 C25       -10.9223   -2.8843   56.1844 C.3     1  ZINC000981048968   -0.1300
     26 C26        -8.8863   -1.2315   60.6789 C.2     1  ZINC000981048968    0.0200
     27 O27        -8.2881   -0.5954   61.6908 O.3     1  ZINC000981048968   -0.1700
     28 H28        -7.6806    1.1140   63.6217 H       1  ZINC000981048968    0.0800
     29 H29        -8.4733    2.4450   62.7452 H       1  ZINC000981048968    0.0900
     30 H30        -9.4024    1.4654   63.9052 H       1  ZINC000981048968    0.0900
     31 H31       -10.8255    1.3707   61.3051 H       1  ZINC000981048968    0.1600
     32 H32        -9.8374   -2.3004   58.4286 H       1  ZINC000981048968    0.4000
     33 H33       -12.2778   -3.9942   58.2728 H       1  ZINC000981048968    0.0700
     34 H34       -13.2492   -2.5671   58.7068 H       1  ZINC000981048968    0.0700
     35 H35       -14.5110   -4.0774   57.1983 H       1  ZINC000981048968    0.0700
     36 H36       -14.1920   -2.5116   56.4140 H       1  ZINC000981048968    0.0600
     37 H37       -12.5567   -5.0603   56.0305 H       1  ZINC000981048968    0.0700
     38 H38       -13.7269   -4.3929   54.8671 H       1  ZINC000981048968    0.0700
     39 H39       -10.2293   -3.8729   54.1070 H       1  ZINC000981048968    0.3500
     40 H40       -11.4906   -4.1373   51.9143 H       1  ZINC000981048968    0.1100
     41 H41       -12.6820   -3.0877   52.7189 H       1  ZINC000981048968    0.0600
     42 H42        -7.7294    0.7637   52.6681 H       1  ZINC000981048968    0.1500
     43 H43        -5.7276   -0.7789   52.8889 H       1  ZINC000981048968    0.1200
     44 H44        -6.7746   -2.2101   52.3820 H       1  ZINC000981048968    0.1100
     45 H45        -7.2599   -1.0708   50.1682 H       1  ZINC000981048968    0.1000
     46 H46        -6.2129    0.3604   50.6752 H       1  ZINC000981048968    0.1200
     47 H47       -10.1476   -2.2336   55.7787 H       1  ZINC000981048968    0.0700
     48 H48       -10.4666   -3.7993   56.5629 H       1  ZINC000981048968    0.0800
     49 H49        -8.5332   -2.1347   60.2035 H       1  ZINC000981048968    0.2100
@<TRIPOS>BOND
     1     1     2    1
     2     1    28    1
     3     1    29    1
     4     1    30    1
     5     2    27    1
     6     2     3    2
     7     3     4    1
     8     3    31    1
     9     4     5    1
    10     4    26    2
    11     5     6    2
    12     5     7   am
    13     7     8    1
    14     7    32    1
    15     8     9    1
    16     8    25    1
    17     8    10    1
    18    10    11    1
    19    10    33    1
    20    10    34    1
    21    11    12    1
    22    11    35    1
    23    11    36    1
    24    12    13    1
    25    12    37    1
    26    12    38    1
    27    13    14    1
    28    13    15    1
    29    13    25    1
    30    15    16    1
    31    15    39    1
    32    16    17    1
    33    16    40    1
    34    16    41    1
    35    17    24    1
    36    17    18    2
    37    18    19    1
    38    19    20    1
    39    20    21    1
    40    20    24    2
    41    21    23    1
    42    21    22    1
    43    21    42    1
    44    22    23    1
    45    22    43    1
    46    22    44    1
    47    23    45    1
    48    23    46    1
    49    25    47    1
    50    25    48    1
    51    26    27    1
    52    26    49    1
@<TRIPOS>SUBSTRUCTURE
     1 ZINC000981048968        1 TEMP              0 ****  ****    0 ROOT


##########                                Name:    ZINC001041713551
##########                DOCK_Rotatable_Bonds:                  10
##########                         Heavy_Atoms:                  22
##########                    Molecular_Weight:             330.448
##########                DOCK_Rotatable_Bonds:                  10
##########                       Formal_Charge:          -0.0100006
##########                     HBond_Acceptors:                   7
##########                        HBond_Donors:                   2
##########                         Heavy_Atoms:                  22
##########                          Grid_Score:          -31.475937
##########                     Grid_vdw_energy:          -31.189674
##########                      Grid_es_energy:           -0.286262
##########           Internal_energy_repulsive:            5.817119

@<TRIPOS>MOLECULE
ZINC001041713551
 48 49 1 0 0
SMALL
USER_CHARGES


@<TRIPOS>ATOM
      1 C1         -7.3533    0.0342   51.7178 C.3     1  ZINC001041713551   -0.1500
      2 C2         -8.1718   -0.9396   52.5681 C.3     1  ZINC001041713551   -0.1100
      3 C3         -9.5545   -1.1267   51.9405 C.3     1  ZINC001041713551   -0.1000
      4 S4        -10.5137   -2.3054   52.9310 S.3     1  ZINC001041713551   -0.1800
      5 C5        -12.1194   -2.3355   52.0877 C.3     1  ZINC001041713551   -0.1300
      6 C6        -13.1589   -2.9227   53.0074 C.2     1  ZINC001041713551    0.5300
      7 O7        -14.2778   -3.1440   52.5951 O.2     1  ZINC001041713551   -0.5100
      8 N8        -12.8452   -3.2018   54.2881 N.am    1  ZINC001041713551   -0.7300
      9 C9        -13.8553   -3.7741   55.1817 C.3     1  ZINC001041713551    0.1000
     10 C10       -13.3167   -3.7944   56.6136 C.3     1  ZINC001041713551    0.0900
     11 O11       -14.2882   -4.2269   57.5682 O.3     1  ZINC001041713551   -0.5200
     12 C12       -11.9528   -4.4947   56.7529 C.3     1  ZINC001041713551    0.0900
     13 N13       -11.5896   -3.3874   57.6584 N.am    1  ZINC001041713551   -0.6400
     14 C14       -10.7059   -3.2420   58.6656 C.2     1  ZINC001041713551    0.5500
     15 O15        -9.9932   -4.1696   58.9856 O.2     1  ZINC001041713551   -0.5100
     16 C16       -10.6035   -1.9268   59.3942 C.3     1  ZINC001041713551    0.0800
     17 H17       -11.3396   -1.2305   58.9926 H       1  ZINC001041713551    0.0800
     18 C18        -9.1985   -1.3481   59.2079 C.3     1  ZINC001041713551   -0.1500
     19 C19        -9.0835   -0.0422   60.0003 C.3     1  ZINC001041713551   -0.1200
     20 C20        -9.4073   -0.3203   61.4714 C.3     1  ZINC001041713551   -0.1600
     21 C21       -10.8041   -0.9388   61.5703 C.3     1  ZINC001041713551    0.0600
     22 O22       -10.8520   -2.1326   60.7863 O.3     1  ZINC001041713551   -0.3600
     23 C23       -12.5825   -2.5031   57.0179 C.3     1  ZINC001041713551    0.1200
     24 H24        -7.8650    0.9956   51.6726 H       1  ZINC001041713551    0.0600
     25 H25        -6.3683    0.1675   52.1650 H       1  ZINC001041713551    0.0600
     26 H26        -7.2437   -0.3668   50.7102 H       1  ZINC001041713551    0.0600
     27 H27        -7.6602   -1.9010   52.6133 H       1  ZINC001041713551    0.0700
     28 H28        -8.2814   -0.5385   53.5757 H       1  ZINC001041713551    0.0700
     29 H29       -10.0736   -0.1686   51.9125 H       1  ZINC001041713551    0.0800
     30 H30        -9.4442   -1.5099   50.9260 H       1  ZINC001041713551    0.0800
     31 H31       -12.4065   -1.3194   51.8167 H       1  ZINC001041713551    0.1100
     32 H32       -12.0454   -2.9447   51.1869 H       1  ZINC001041713551    0.1100
     33 H33       -11.9507   -3.0235   54.6182 H       1  ZINC001041713551    0.4000
     34 H34       -14.7604   -3.1681   55.1424 H       1  ZINC001041713551    0.0900
     35 H35       -14.0852   -4.7916   54.8656 H       1  ZINC001041713551    0.0900
     36 H36       -15.0612   -3.6492   57.6319 H       1  ZINC001041713551    0.3800
     37 H37       -12.0058   -5.4657   57.2455 H       1  ZINC001041713551    0.0900
     38 H38       -11.3733   -4.5156   55.8300 H       1  ZINC001041713551    0.1000
     39 H39        -8.4593   -2.0615   59.5723 H       1  ZINC001041713551    0.0800
     40 H40        -9.0237   -1.1491   58.1505 H       1  ZINC001041713551    0.0800
     41 H41        -8.0684    0.3463   59.9176 H       1  ZINC001041713551    0.0700
     42 H42        -9.7885    0.6884   59.6036 H       1  ZINC001041713551    0.0700
     43 H43        -8.6724   -1.0130   61.8815 H       1  ZINC001041713551    0.0700
     44 H44        -9.3818    0.6136   62.0329 H       1  ZINC001041713551    0.0800
     45 H45       -11.0229   -1.1783   62.6110 H       1  ZINC001041713551    0.1000
     46 H46       -11.5430   -0.2295   61.1974 H       1  ZINC001041713551    0.0500
     47 H47       -12.1880   -1.9390   56.1728 H       1  ZINC001041713551    0.1100
     48 H48       -13.1383   -1.8839   57.7221 H       1  ZINC001041713551    0.1000
@<TRIPOS>BOND
     1     1     2    1
     2     1    24    1
     3     1    25    1
     4     1    26    1
     5     2     3    1
     6     2    27    1
     7     2    28    1
     8     3     4    1
     9     3    29    1
    10     3    30    1
    11     4     5    1
    12     5     6    1
    13     5    31    1
    14     5    32    1
    15     6     7    2
    16     6     8   am
    17     8     9    1
    18     8    33    1
    19     9    10    1
    20     9    34    1
    21     9    35    1
    22    10    23    1
    23    10    11    1
    24    10    12    1
    25    11    36    1
    26    12    13    1
    27    12    37    1
    28    12    38    1
    29    13    14   am
    30    13    23    1
    31    14    15    2
    32    14    16    1
    33    16    17    1
    34    16    22    1
    35    16    18    1
    36    18    19    1
    37    18    39    1
    38    18    40    1
    39    19    20    1
    40    19    41    1
    41    19    42    1
    42    20    21    1
    43    20    43    1
    44    20    44    1
    45    21    22    1
    46    21    45    1
    47    21    46    1
    48    23    47    1
    49    23    48    1
@<TRIPOS>SUBSTRUCTURE
     1 ZINC001041713551        1 TEMP              0 ****  ****    0 ROOT


##########                                Name:    ZINC000013551438
##########                DOCK_Rotatable_Bonds:                   5
##########                         Heavy_Atoms:                  27
##########                    Molecular_Weight:             377.467
##########                DOCK_Rotatable_Bonds:                   5
##########                       Formal_Charge:          -0.0300005
##########                     HBond_Acceptors:                   6
##########                        HBond_Donors:                   1
##########                         Heavy_Atoms:                  27
##########                          Grid_Score:          -31.450464
##########                     Grid_vdw_energy:          -30.465996
##########                      Grid_es_energy:           -0.984468
##########           Internal_energy_repulsive:           12.380341

@<TRIPOS>MOLECULE
ZINC000013551438
 46 49 1 0 0
SMALL
USER_CHARGES


@<TRIPOS>ATOM
      1 C1         -0.9579   -0.8356   46.0932 C.3     1  <0>         0.0300
      2 O2         -1.1348   -0.2420   47.3809 O.3     1  <0>        -0.3200
      3 C3         -0.8776    1.0891   47.4877 C.ar    1  <0>         0.1000
      4 C4         -0.3576    1.7845   46.3997 C.ar    1  <0>        -0.1800
      5 C5         -0.0916    3.1327   46.4916 C.ar    1  <0>        -0.0900
      6 C6         -0.3426    3.8118   47.6793 C.ar    1  <0>         0.0700
      7 C7         -0.8681    3.1116   48.7786 C.ar    1  <0>        -0.0400
      8 C8         -1.1388    1.7476   48.6736 C.ar    1  <0>        -0.1100
      9 C9         -1.0139    4.0996   49.8593 C.2     1  <0>        -0.1200
     10 C10        -1.5303    3.8459   51.2267 C.2     1  <0>         0.1700
     11 C11        -0.7608    3.9352   52.3277 C.2     1  <0>        -0.3000
     12 S12        -1.7638    3.5581   53.7258 S.3     1  <0>         0.2500
     13 C13        -3.1162    3.3167   52.7090 C.2     1  <0>         0.2400
     14 N14        -4.3847    2.9627   53.1488 N.am    1  <0>        -0.6200
     15 C15        -5.0704    1.9904   52.5159 C.2     1  <0>         0.5600
     16 O16        -4.5777    1.4222   51.5608 O.2     1  <0>        -0.5000
     17 C17        -6.4214    1.6148   52.9829 C.ar    1  <0>        -0.1400
     18 C18        -7.1970    0.7228   52.2403 C.ar    1  <0>        -0.0800
     19 C19        -8.4571    0.3759   52.6821 C.ar    1  <0>        -0.1300
     20 C20        -8.9524    0.9102   53.8584 C.ar    1  <0>        -0.0800
     21 C21        -8.1891    1.7952   54.5989 C.ar    1  <0>        -0.1300
     22 C22        -6.9252    2.1459   54.1715 C.ar    1  <0>        -0.0500
     23 N23        -2.7923    3.5167   51.4713 N.2     1  <0>        -0.5000
     24 C24        -0.5851    5.2852   49.3648 C.2     1  <0>         0.1300
     25 C25        -0.5548    6.5837   50.1292 C.3     1  <0>        -0.0900
     26 N26        -0.1827    5.1262   48.0671 N.pl3   1  <0>        -0.4800
     27 C27         0.3423    6.1952   47.2140 C.3     1  <0>         0.0800
     28 H28         0.0770   -0.7109   45.7745 H       1  <0>         0.0500
     29 H29        -1.1959   -1.8981   46.1471 H       1  <0>         0.1000
     30 H30        -1.6199   -0.3510   45.3756 H       1  <0>         0.0500
     31 H31        -0.1605    1.2620   45.4753 H       1  <0>         0.1300
     32 H32         0.3122    3.6626   45.6415 H       1  <0>         0.1200
     33 H33        -1.5426    1.2075   49.5171 H       1  <0>         0.1300
     34 H34         0.2878    4.1929   52.3499 H       1  <0>         0.1800
     35 H35        -4.7774    3.4153   53.9117 H       1  <0>         0.4200
     36 H36        -6.8117    0.3053   51.3218 H       1  <0>         0.1300
     37 H37        -9.0583   -0.3137   52.1083 H       1  <0>         0.1300
     38 H38        -9.9394    0.6353   54.1998 H       1  <0>         0.1300
     39 H39        -8.5818    2.2089   55.5161 H       1  <0>         0.1300
     40 H40        -6.3302    2.8366   54.7507 H       1  <0>         0.1400
     41 H41         0.4358    6.7286   50.5601 H       1  <0>         0.0800
     42 H42        -0.7813    7.4084   49.4535 H       1  <0>         0.0700
     43 H43        -1.2971    6.5531   50.9268 H       1  <0>         0.0800
     44 H44         1.4254    6.2488   47.3238 H       1  <0>         0.0700
     45 H45         0.0925    5.9858   46.1739 H       1  <0>         0.0800
     46 H46        -0.1003    7.1464   47.5096 H       1  <0>         0.0800
@<TRIPOS>BOND
     1     1     2    1
     2     1    28    1
     3     1    29    1
     4     1    30    1
     5     2     3    1
     6     3     8   ar
     7     3     4   ar
     8     4     5   ar
     9     4    31    1
    10     5     6   ar
    11     5    32    1
    12     6    26    1
    13     6     7   ar
    14     7     8   ar
    15     7     9    1
    16     8    33    1
    17     9    10    1
    18     9    24    2
    19    10    23    1
    20    10    11    2
    21    11    12    1
    22    11    34    1
    23    12    13    1
    24    13    14    1
    25    13    23    2
    26    14    15   am
    27    14    35    1
    28    15    16    2
    29    15    17    1
    30    17    22   ar
    31    17    18   ar
    32    18    19   ar
    33    18    36    1
    34    19    20   ar
    35    19    37    1
    36    20    21   ar
    37    20    38    1
    38    21    22   ar
    39    21    39    1
    40    22    40    1
    41    24    25    1
    42    24    26    1
    43    25    41    1
    44    25    42    1
    45    25    43    1
    46    26    27    1
    47    27    44    1
    48    27    45    1
    49    27    46    1
@<TRIPOS>SUBSTRUCTURE
     1 <0>         1 TEMP              0 ****  ****    0 ROOT


##########                                Name:    ZINC000426805817
##########                DOCK_Rotatable_Bonds:                   6
##########                         Heavy_Atoms:                  26
##########                    Molecular_Weight:             412.286
##########                DOCK_Rotatable_Bonds:                   6
##########                       Formal_Charge:          -0.0100001
##########                     HBond_Acceptors:                   5
##########                        HBond_Donors:                   4
##########                         Heavy_Atoms:                  26
##########                          Grid_Score:          -31.436319
##########                     Grid_vdw_energy:          -27.287142
##########                      Grid_es_energy:           -4.149177
##########           Internal_energy_repulsive:            6.122411

@<TRIPOS>MOLECULE
ZINC000426805817
 44 47 1 0 0
SMALL
USER_CHARGES


@<TRIPOS>ATOM
      1 O1         -1.6098    6.7025   52.8650 O.co2   1  ZINC000426805817   -0.6300
      2 C2         -2.3267    5.7346   53.0537 C.2     1  ZINC000426805817    0.5000
      3 O3         -3.4000    5.8713   53.6159 O.co2   1  ZINC000426805817   -0.6800
      4 C4         -1.8892    4.3703   52.5868 C.3     1  ZINC000426805817   -0.0500
      5 H5         -2.7292    3.6783   52.6489 H       1  ZINC000426805817    0.1300
      6 C6         -1.4067    4.4576   51.1375 C.3     1  ZINC000426805817   -0.0500
      7 C7         -1.5046    3.0991   50.4926 C.2     1  ZINC000426805817   -0.1900
      8 C8         -1.9570    1.9733   51.0669 C.2     1  ZINC000426805817    0.0500
      9 N9         -1.8975    0.9379   50.1745 N.pl3   1  ZINC000426805817   -0.5900
     10 C10        -1.3922    1.3835   48.9730 C.ar    1  ZINC000426805817    0.1100
     11 C11        -1.1288    0.7618   47.7573 C.ar    1  ZINC000426805817   -0.1200
     12 C12        -0.6097    1.4914   46.7104 C.ar    1  ZINC000426805817   -0.0700
     13 C13        -0.3447    2.8470   46.8546 C.ar    1  ZINC000426805817   -0.1100
     14 Br14        0.3679    3.8255   45.4017 Br      1  ZINC000426805817   -0.0400
     15 C15        -0.5984    3.4828   48.0496 C.ar    1  ZINC000426805817   -0.0400
     16 C16        -1.1301    2.7580   49.1180 C.ar    1  ZINC000426805817   -0.1000
     17 N17        -0.7941    3.8887   53.4394 N.4     1  ZINC000426805817   -0.4800
     18 H18        -0.5245    2.9609   53.1486 H       1  ZINC000426805817    0.4000
     19 H19        -0.0039    4.5105   53.3552 H       1  ZINC000426805817    0.4200
     20 C20        -1.2419    3.8528   54.8380 C.3     1  ZINC000426805817    0.0400
     21 C21        -0.1385    3.3031   55.7048 C.ar    1  ZINC000426805817   -0.1600
     22 C22        -0.4470    2.5588   56.8385 C.ar    1  ZINC000426805817    0.1100
     23 N23        -1.6308    2.1629   57.4195 N.pl3   1  ZINC000426805817   -0.5900
     24 C24        -1.3739    1.4307   58.5466 C.2     1  ZINC000426805817    0.0600
     25 C25        -0.0486    1.3276   58.7332 C.2     1  ZINC000426805817   -0.2000
     26 C26         0.5961    2.0529   57.6359 C.ar    1  ZINC000426805817   -0.1100
     27 C27         1.9242    2.3008   57.2846 C.ar    1  ZINC000426805817   -0.0400
     28 C28         2.2046    3.0346   56.1664 C.ar    1  ZINC000426805817   -0.1500
     29 C29         1.1793    3.5313   55.3737 C.ar    1  ZINC000426805817   -0.0700
     30 H30        -2.0284    5.1656   50.5896 H       1  ZINC000426805817    0.1200
     31 H31        -0.3702    4.7944   51.1194 H       1  ZINC000426805817    0.0900
     32 H32        -2.3148    1.8963   52.0830 H       1  ZINC000426805817    0.1700
     33 H33        -2.1705    0.0258   50.3603 H       1  ZINC000426805817    0.4200
     34 H34        -1.3307   -0.2920   47.6341 H       1  ZINC000426805817    0.1300
     35 H35        -0.4064    1.0041   45.7683 H       1  ZINC000426805817    0.1400
     36 H36        -0.3913    4.5371   48.1584 H       1  ZINC000426805817    0.1400
     37 H37        -1.4926    4.8618   55.1653 H       1  ZINC000426805817    0.1500
     38 H38        -2.1217    3.2147   54.9216 H       1  ZINC000426805817    0.1300
     39 H39        -2.5153    2.3722   57.0807 H       1  ZINC000426805817    0.4300
     40 H40        -2.1260    0.9998   59.1908 H       1  ZINC000426805817    0.1800
     41 H41         0.4482    0.8085   59.5396 H       1  ZINC000426805817    0.1500
     42 H42         2.7273    1.9142   57.8946 H       1  ZINC000426805817    0.1300
     43 H43         3.2323    3.2261   55.8951 H       1  ZINC000426805817    0.1300
     44 H44         1.4168    4.1097   54.4930 H       1  ZINC000426805817    0.1300
@<TRIPOS>BOND
     1     1     2   ar
     2     2     3   ar
     3     2     4    1
     4     4     5    1
     5     4     6    1
     6     4    17    1
     7     6     7    1
     8     6    30    1
     9     6    31    1
    10     7    16    1
    11     7     8    2
    12     8     9    1
    13     8    32    1
    14     9    10    1
    15     9    33    1
    16    10    16   ar
    17    10    11   ar
    18    11    12   ar
    19    11    34    1
    20    12    13   ar
    21    12    35    1
    22    13    14    1
    23    13    15   ar
    24    15    16   ar
    25    15    36    1
    26    17    18    1
    27    17    19    1
    28    17    20    1
    29    20    21    1
    30    20    37    1
    31    20    38    1
    32    21    29   ar
    33    21    22   ar
    34    22    26   ar
    35    22    23    1
    36    23    24    1
    37    23    39    1
    38    24    25    2
    39    24    40    1
    40    25    26    1
    41    25    41    1
    42    26    27   ar
    43    27    28   ar
    44    27    42    1
    45    28    29   ar
    46    28    43    1
    47    29    44    1
@<TRIPOS>SUBSTRUCTURE
     1 ZINC000426805817        1 TEMP              0 ****  ****    0 ROOT


##########                                Name:    ZINC000949401225
##########                DOCK_Rotatable_Bonds:                   7
##########                         Heavy_Atoms:                  24
##########                    Molecular_Weight:             332.403
##########                DOCK_Rotatable_Bonds:                   7
##########                       Formal_Charge:                0.03
##########                     HBond_Acceptors:                   7
##########                        HBond_Donors:                   1
##########                         Heavy_Atoms:                  24
##########                          Grid_Score:          -31.435577
##########                     Grid_vdw_energy:          -31.225142
##########                      Grid_es_energy:           -0.210436
##########           Internal_energy_repulsive:           11.270867

@<TRIPOS>MOLECULE
ZINC000949401225
 48 50 1 0 0
SMALL
USER_CHARGES


@<TRIPOS>ATOM
      1 C1         -7.3938   -1.3058   51.5594 C.3     1  ZINC000949401225    0.0700
      2 N2         -6.9356    0.0361   51.9275 N.pl3   1  ZINC000949401225   -0.4500
      3 C3         -7.7440    1.0417   52.3713 C.2     1  ZINC000949401225   -0.0100
      4 C4         -6.9914    2.1295   52.6141 C.2     1  ZINC000949401225   -0.1700
      5 C5         -5.6101    1.7556   52.2917 C.2     1  ZINC000949401225   -0.2400
      6 C6         -4.4150    2.6100   52.3945 C.2     1  ZINC000949401225    0.5900
      7 O7         -4.4557    3.6370   53.0447 O.2     1  ZINC000949401225   -0.5500
      8 N8         -3.2762    2.2537   51.7679 N.am    1  ZINC000949401225   -0.7300
      9 C9         -2.0867    3.1026   51.8715 C.3     1  ZINC000949401225    0.1200
     10 C10        -2.0581    4.0859   50.6997 C.3     1  ZINC000949401225    0.1200
     11 H11        -3.0392    4.5064   50.4786 H       1  ZINC000949401225    0.1000
     12 C12        -0.9519    5.1437   50.8162 C.3     1  ZINC000949401225   -0.1500
     13 C13        -0.8210    4.9152   49.3040 C.3     1  ZINC000949401225    0.1000
     14 N14        -1.3640    3.5633   49.5132 N.am    1  ZINC000949401225   -0.6400
     15 C15        -1.2660    2.3713   48.8919 C.2     1  ZINC000949401225    0.5500
     16 O16        -1.8596    1.4086   49.3299 O.2     1  ZINC000949401225   -0.5200
     17 C17        -0.4190    2.2348   47.6530 C.3     1  ZINC000949401225   -0.1400
     18 C18         0.2649    0.8661   47.6511 C.3     1  ZINC000949401225    0.1500
     19 H19        -0.3386    0.1427   48.1996 H       1  ZINC000949401225    0.0900
     20 C20         0.4909    0.3835   46.2011 C.3     1  ZINC000949401225   -0.1200
     21 C21         1.8450   -0.3533   46.3215 C.3     1  ZINC000949401225   -0.1600
     22 C22         2.5101    0.2863   47.5203 C.2     1  ZINC000949401225    0.5200
     23 O23         3.6893    0.1984   47.7896 O.2     1  ZINC000949401225   -0.5300
     24 N24         1.6030    0.9660   48.2456 N.am    1  ZINC000949401225   -0.6200
     25 C25         1.9127    1.7112   49.4683 C.3     1  ZINC000949401225    0.0900
     26 C26        -5.6554    0.4516   51.8819 C.2     1  ZINC000949401225    0.0800
     27 H27        -7.3716   -1.9510   52.4376 H       1  ZINC000949401225    0.0800
     28 H28        -8.4126   -1.2493   51.1759 H       1  ZINC000949401225    0.0900
     29 H29        -6.7384   -1.7154   50.7908 H       1  ZINC000949401225    0.0900
     30 H30        -8.8136    0.9750   52.5055 H       1  ZINC000949401225    0.1700
     31 H31        -7.3356    3.0876   52.9744 H       1  ZINC000949401225    0.1500
     32 H32        -3.2441    1.4352   51.2484 H       1  ZINC000949401225    0.4000
     33 H33        -2.1161    3.6563   52.8099 H       1  ZINC000949401225    0.0700
     34 H34        -1.1924    2.4799   51.8451 H       1  ZINC000949401225    0.0900
     35 H35        -1.3098    6.1365   51.0888 H       1  ZINC000949401225    0.1000
     36 H36        -0.0852    4.8221   51.3935 H       1  ZINC000949401225    0.1000
     37 H37        -1.4725    5.5564   48.7102 H       1  ZINC000949401225    0.0900
     38 H38         0.2106    4.9196   48.9520 H       1  ZINC000949401225    0.0800
     39 H39        -1.0502    2.3268   46.7692 H       1  ZINC000949401225    0.1000
     40 H40         0.3379    3.0190   47.6422 H       1  ZINC000949401225    0.1000
     41 H41        -0.2989   -0.3002   45.8900 H       1  ZINC000949401225    0.1000
     42 H42         0.5658    1.2280   45.5162 H       1  ZINC000949401225    0.0800
     43 H43         1.6861   -1.4175   46.4959 H       1  ZINC000949401225    0.1100
     44 H44         2.4448   -0.1982   45.4246 H       1  ZINC000949401225    0.1000
     45 H45         2.9889    1.6956   49.6406 H       1  ZINC000949401225    0.0800
     46 H46         1.5770    2.7427   49.3599 H       1  ZINC000949401225    0.0600
     47 H47         1.4025    1.2501   50.3139 H       1  ZINC000949401225    0.0600
     48 H48        -4.8094   -0.1420   51.5685 H       1  ZINC000949401225    0.1800
@<TRIPOS>BOND
     1     1     2    1
     2     1    27    1
     3     1    28    1
     4     1    29    1
     5     2    26    1
     6     2     3    1
     7     3     4    2
     8     3    30    1
     9     4     5    1
    10     4    31    1
    11     5     6    1
    12     5    26    2
    13     6     7    2
    14     6     8   am
    15     8     9    1
    16     8    32    1
    17     9    10    1
    18     9    33    1
    19     9    34    1
    20    10    11    1
    21    10    14    1
    22    10    12    1
    23    12    13    1
    24    12    35    1
    25    12    36    1
    26    13    14    1
    27    13    37    1
    28    13    38    1
    29    14    15   am
    30    15    16    2
    31    15    17    1
    32    17    18    1
    33    17    39    1
    34    17    40    1
    35    18    19    1
    36    18    24    1
    37    18    20    1
    38    20    21    1
    39    20    41    1
    40    20    42    1
    41    21    22    1
    42    21    43    1
    43    21    44    1
    44    22    23    2
    45    22    24   am
    46    24    25    1
    47    25    45    1
    48    25    46    1
    49    25    47    1
    50    26    48    1
@<TRIPOS>SUBSTRUCTURE
     1 ZINC000949401225        1 TEMP              0 ****  ****    0 ROOT


##########                                Name:    ZINC001061022329
##########                DOCK_Rotatable_Bonds:                   7
##########                         Heavy_Atoms:                  27
##########                    Molecular_Weight:             374.523
##########                DOCK_Rotatable_Bonds:                   7
##########                       Formal_Charge:           0.0800005
##########                     HBond_Acceptors:                   5
##########                        HBond_Donors:                   0
##########                         Heavy_Atoms:                  27
##########                          Grid_Score:          -31.430754
##########                     Grid_vdw_energy:          -29.056423
##########                      Grid_es_energy:           -2.374330
##########           Internal_energy_repulsive:           24.100376

@<TRIPOS>MOLECULE
ZINC001061022329
 61 64 1 0 0
SMALL
USER_CHARGES


@<TRIPOS>ATOM
      1 C1         -9.2550   -0.0693   67.2010 C.3     1  ZINC001061022329   -0.1500
      2 C2         -8.0288    0.7114   66.7234 C.3     1  ZINC001061022329   -0.1200
      3 C3         -8.4820    1.9928   66.0208 C.3     1  ZINC001061022329    0.0800
      4 H4         -8.8669    2.6957   66.7596 H       1  ZINC001061022329    0.0600
      5 C5         -7.2937    2.6210   65.2898 C.3     1  ZINC001061022329   -0.1800
      6 O6         -9.5103    1.6814   65.0787 O.3     1  ZINC001061022329   -0.3500
      7 C7         -9.0492    0.9686   63.9292 C.3     1  ZINC001061022329    0.0500
      8 C8        -10.1935    0.1970   63.3241 C.2     1  ZINC001061022329    0.5200
      9 O9        -11.2785    0.1968   63.8661 O.2     1  ZINC001061022329   -0.5100
     10 N10       -10.0113   -0.4928   62.1807 N.am    1  ZINC001061022329   -0.6100
     11 C11        -8.7005   -0.5032   61.5180 C.3     1  ZINC001061022329    0.1100
     12 C12        -8.8753   -0.0248   60.0717 C.3     1  ZINC001061022329   -0.1200
     13 C13        -9.9737   -0.8473   59.4024 C.3     1  ZINC001061022329   -0.0900
     14 C14       -10.0855   -0.6089   57.8903 C.3     1  ZINC001061022329    0.1200
     15 N15       -10.2512   -2.0719   57.7769 N.am    1  ZINC001061022329   -0.6400
     16 C16       -10.8200   -2.8898   56.8691 C.2     1  ZINC001061022329    0.5400
     17 O17       -10.8075   -4.0901   57.0423 O.2     1  ZINC001061022329   -0.5300
     18 C18       -11.4715   -2.3127   55.6388 C.3     1  ZINC001061022329   -0.0900
     19 H19       -10.7910   -1.6047   55.1658 H       1  ZINC001061022329    0.1000
     20 C20       -12.7620   -1.5923   56.0356 C.3     1  ZINC001061022329   -0.1000
     21 C21       -13.9530   -2.2398   55.3178 C.3     1  ZINC001061022329   -0.0600
     22 H22       -14.8894   -1.7748   55.6261 H       1  ZINC001061022329    0.0800
     23 C23       -13.9505   -3.7234   55.6555 C.2     1  ZINC001061022329   -0.1800
     24 C24       -12.8282   -4.3500   55.3105 C.2     1  ZINC001061022329   -0.1300
     25 C25       -11.7972   -3.4437   54.6549 C.3     1  ZINC001061022329   -0.0400
     26 H26       -10.9025   -4.0060   54.3875 H       1  ZINC001061022329    0.0900
     27 C27       -12.4450   -2.8265   53.4077 C.3     1  ZINC001061022329   -0.1100
     28 C28       -13.7435   -2.0904   53.8046 C.3     1  ZINC001061022329   -0.1100
     29 C29        -9.5433   -2.2795   59.0559 C.3     1  ZINC001061022329    0.1100
     30 C30       -11.3115   -0.7719   60.1340 C.3     1  ZINC001061022329   -0.1100
     31 C31       -11.1190   -1.2498   61.5829 C.3     1  ZINC001061022329    0.1100
     32 H32        -9.8275    0.5438   67.8971 H       1  ZINC001061022329    0.0500
     33 H33        -9.8787   -0.3255   66.3447 H       1  ZINC001061022329    0.0600
     34 H34        -8.9322   -0.9822   67.7015 H       1  ZINC001061022329    0.0600
     35 H35        -7.4051    0.9676   67.5798 H       1  ZINC001061022329    0.0800
     36 H36        -7.4563    0.0984   66.0273 H       1  ZINC001061022329    0.0700
     37 H37        -7.6165    3.5339   64.7892 H       1  ZINC001061022329    0.0600
     38 H38        -6.5094    2.8586   66.0084 H       1  ZINC001061022329    0.0700
     39 H39        -6.9089    1.9182   64.5509 H       1  ZINC001061022329    0.0700
     40 H40        -8.6591    1.6746   63.1961 H       1  ZINC001061022329    0.0800
     41 H41        -8.2597    0.2768   64.2233 H       1  ZINC001061022329    0.0800
     42 H42        -8.0196    0.1657   62.0444 H       1  ZINC001061022329    0.0900
     43 H43        -8.2971   -1.5158   61.5218 H       1  ZINC001061022329    0.0800
     44 H44        -9.1551    1.0286   60.0677 H       1  ZINC001061022329    0.0800
     45 H45        -7.9393   -0.1564   59.5288 H       1  ZINC001061022329    0.0800
     46 H46       -10.9697   -0.0423   57.5987 H       1  ZINC001061022329    0.0800
     47 H47        -9.1688   -0.2337   57.4353 H       1  ZINC001061022329    0.0900
     48 H48       -12.9031   -1.6677   57.1138 H       1  ZINC001061022329    0.0700
     49 H49       -12.6938   -0.5422   55.7512 H       1  ZINC001061022329    0.0700
     50 H50       -14.7822   -4.2217   56.1312 H       1  ZINC001061022329    0.1200
     51 H51       -12.6644   -5.4039   55.4805 H       1  ZINC001061022329    0.1200
     52 H52       -11.7555   -2.1135   52.9556 H       1  ZINC001061022329    0.0700
     53 H53       -12.6747   -3.6142   52.6903 H       1  ZINC001061022329    0.0700
     54 H54       -14.5880   -2.5339   53.2771 H       1  ZINC001061022329    0.0700
     55 H55       -13.6604   -1.0373   53.5361 H       1  ZINC001061022329    0.0700
     56 H56        -8.4654   -2.4006   58.9474 H       1  ZINC001061022329    0.0900
     57 H57        -9.9966   -3.0406   59.6909 H       1  ZINC001061022329    0.0800
     58 H58       -11.6705    0.2573   60.1319 H       1  ZINC001061022329    0.0800
     59 H59       -12.0371   -1.4130   59.6335 H       1  ZINC001061022329    0.0800
     60 H60       -10.8859   -2.3145   61.5886 H       1  ZINC001061022329    0.0700
     61 H61       -12.0316   -1.0703   62.1512 H       1  ZINC001061022329    0.1000
@<TRIPOS>BOND
     1     1     2    1
     2     1    32    1
     3     1    33    1
     4     1    34    1
     5     2     3    1
     6     2    35    1
     7     2    36    1
     8     3     4    1
     9     3     5    1
    10     3     6    1
    11     5    37    1
    12     5    38    1
    13     5    39    1
    14     6     7    1
    15     7     8    1
    16     7    40    1
    17     7    41    1
    18     8     9    2
    19     8    10   am
    20    10    31    1
    21    10    11    1
    22    11    12    1
    23    11    42    1
    24    11    43    1
    25    12    13    1
    26    12    44    1
    27    12    45    1
    28    13    29    1
    29    13    14    1
    30    13    30    1
    31    14    15    1
    32    14    46    1
    33    14    47    1
    34    15    16   am
    35    15    29    1
    36    16    17    2
    37    16    18    1
    38    18    19    1
    39    18    25    1
    40    18    20    1
    41    20    21    1
    42    20    48    1
    43    20    49    1
    44    21    22    1
    45    21    28    1
    46    21    23    1
    47    23    24    2
    48    23    50    1
    49    24    25    1
    50    24    51    1
    51    25    26    1
    52    25    27    1
    53    27    28    1
    54    27    52    1
    55    27    53    1
    56    28    54    1
    57    28    55    1
    58    29    56    1
    59    29    57    1
    60    30    31    1
    61    30    58    1
    62    30    59    1
    63    31    60    1
    64    31    61    1
@<TRIPOS>SUBSTRUCTURE
     1 ZINC001061022329        1 TEMP              0 ****  ****    0 ROOT


##########                                Name:    ZINC000788423111
##########                DOCK_Rotatable_Bonds:                   7
##########                         Heavy_Atoms:                  23
##########                    Molecular_Weight:             399.243
##########                DOCK_Rotatable_Bonds:                   7
##########                       Formal_Charge:         1.04308e-07
##########                     HBond_Acceptors:                   8
##########                        HBond_Donors:                   1
##########                         Heavy_Atoms:                  23
##########                          Grid_Score:          -31.425783
##########                     Grid_vdw_energy:          -31.606100
##########                      Grid_es_energy:            0.180316
##########           Internal_energy_repulsive:            4.499751

@<TRIPOS>MOLECULE
ZINC000788423111
 35 37 1 0 0
SMALL
USER_CHARGES


@<TRIPOS>ATOM
      1 O1          0.1147    1.6141   50.8606 O.3     1  ZINC000788423111   -0.5400
      2 C2         -1.2890    1.8787   50.8173 C.3     1  ZINC000788423111    0.1000
      3 H3         -1.8359    0.9361   50.7955 H       1  ZINC000788423111    0.1300
      4 C4         -1.6169    2.6876   49.5607 C.3     1  ZINC000788423111    0.0300
      5 O5         -1.7070    1.8081   48.4380 O.3     1  ZINC000788423111   -0.2900
      6 C6         -0.6827    1.8399   47.5456 C.ar    1  ZINC000788423111    0.1700
      7 C7          0.1183    0.7219   47.3678 C.ar    1  ZINC000788423111   -0.2400
      8 C8          1.1610    0.7567   46.4586 C.ar    1  ZINC000788423111    0.1500
      9 F9          1.9420   -0.3319   46.2846 F       1  ZINC000788423111   -0.1300
     10 C10         1.4038    1.9068   45.7268 C.ar    1  ZINC000788423111   -0.1600
     11 C11         0.6054    3.0226   45.9039 C.ar    1  ZINC000788423111   -0.0300
     12 Br12        0.9396    4.5918   44.9030 Br      1  ZINC000788423111   -0.0200
     13 C13        -0.4404    2.9895   46.8071 C.ar    1  ZINC000788423111   -0.1300
     14 C14        -1.6963    2.6761   52.0579 C.3     1  ZINC000788423111    0.1000
     15 N15        -3.1380    2.5365   52.2765 N.pl3   1  ZINC000788423111   -0.1300
     16 N16        -3.9028    3.4340   52.7929 N.2     1  ZINC000788423111   -0.0500
     17 N17        -5.1099    2.9817   52.8378 N.2     1  ZINC000788423111   -0.2600
     18 C18        -5.0900    1.7424   52.3233 C.2     1  ZINC000788423111    0.2400
     19 C19        -6.2446    0.8308   52.1686 C.2     1  ZINC000788423111   -0.1300
     20 C20        -6.1831   -0.4291   51.6954 C.2     1  ZINC000788423111   -0.0800
     21 C21        -7.3956   -1.0857   51.6436 C.2     1  ZINC000788423111   -0.1400
     22 C22        -8.4432   -0.3741   52.0694 C.2     1  ZINC000788423111   -0.2000
     23 S23        -7.9093    1.2214   52.5812 S.3     1  ZINC000788423111    0.1700
     24 N24        -3.8400    1.4981   51.9769 N.2     1  ZINC000788423111   -0.2900
     25 H25         0.4394    1.0906   50.1153 H       1  ZINC000788423111    0.3800
     26 H26        -2.5687    3.2011   49.6972 H       1  ZINC000788423111    0.0900
     27 H27        -0.8302    3.4213   49.3852 H       1  ZINC000788423111    0.0800
     28 H28        -0.0713   -0.1750   47.9388 H       1  ZINC000788423111    0.1500
     29 H29         2.2175    1.9328   45.0172 H       1  ZINC000788423111    0.1500
     30 H30        -1.0633    3.8609   46.9445 H       1  ZINC000788423111    0.1500
     31 H31        -1.1585    2.2963   52.9266 H       1  ZINC000788423111    0.1300
     32 H32        -1.4512    3.7279   51.9103 H       1  ZINC000788423111    0.1300
     33 H33        -5.2579   -0.8888   51.3810 H       1  ZINC000788423111    0.1500
     34 H34        -7.4909   -2.0999   51.2850 H       1  ZINC000788423111    0.1500
     35 H35        -9.4633   -0.7271   52.0992 H       1  ZINC000788423111    0.1700
@<TRIPOS>BOND
     1     1     2    1
     2     1    25    1
     3     2     3    1
     4     2     4    1
     5     2    14    1
     6     4     5    1
     7     4    26    1
     8     4    27    1
     9     5     6    1
    10     6    13   ar
    11     6     7   ar
    12     7     8   ar
    13     7    28    1
    14     8     9    1
    15     8    10   ar
    16    10    11   ar
    17    10    29    1
    18    11    12    1
    19    11    13   ar
    20    13    30    1
    21    14    15    1
    22    14    31    1
    23    14    32    1
    24    15    24    1
    25    15    16    1
    26    16    17    2
    27    17    18    1
    28    18    19    1
    29    18    24    2
    30    19    23    1
    31    19    20    2
    32    20    21    1
    33    20    33    1
    34    21    22    2
    35    21    34    1
    36    22    23    1
    37    22    35    1
@<TRIPOS>SUBSTRUCTURE
     1 ZINC000788423111        1 TEMP              0 ****  ****    0 ROOT


##########                                Name:    ZINC000573650873
##########                DOCK_Rotatable_Bonds:                  10
##########                         Heavy_Atoms:                  28
##########                    Molecular_Weight:             418.843
##########                DOCK_Rotatable_Bonds:                  10
##########                       Formal_Charge:          -0.0500001
##########                     HBond_Acceptors:                   9
##########                        HBond_Donors:                   1
##########                         Heavy_Atoms:                  28
##########                          Grid_Score:          -31.422325
##########                     Grid_vdw_energy:          -31.955185
##########                      Grid_es_energy:            0.532859
##########           Internal_energy_repulsive:           15.332330

@<TRIPOS>MOLECULE
ZINC000573650873
 50 51 1 0 0
SMALL
USER_CHARGES


@<TRIPOS>ATOM
      1 C1        -11.6094   -4.6114   57.2465 C.3     1  ZINC000573650873   -0.1400
      2 C2        -12.7396   -3.6526   56.8667 C.3     1  ZINC000573650873    0.0100
      3 C3        -14.0628   -4.1758   57.4292 C.3     1  ZINC000573650873   -0.1400
      4 C4        -12.4503   -2.2674   57.4486 C.3     1  ZINC000573650873   -0.1500
      5 C5        -12.8345   -3.5572   55.3658 C.2     1  ZINC000573650873   -0.0100
      6 C6        -13.3879   -2.5483   54.6537 C.2     1  ZINC000573650873   -0.1800
      7 C7        -13.2159   -2.9505   53.2999 C.2     1  ZINC000573650873   -0.0300
      8 C8        -13.6425   -2.2084   52.0885 C.2     1  ZINC000573650873    0.6000
      9 O9        -14.8246   -2.0377   51.8655 O.2     1  ZINC000573650873   -0.5100
     10 N10       -12.7188   -1.7234   51.2351 N.am    1  ZINC000573650873   -0.5900
     11 C11       -11.2934   -1.9291   51.5040 C.3     1  ZINC000573650873    0.1200
     12 C12       -10.8735   -1.0802   52.7057 C.3     1  ZINC000573650873   -0.1000
     13 C13        -9.4813   -0.5483   52.4829 C.ar    1  ZINC000573650873   -0.0800
     14 C14        -8.4155   -1.4229   52.3816 C.ar    1  ZINC000573650873   -0.1000
     15 C15        -7.1383   -0.9356   52.1773 C.ar    1  ZINC000573650873   -0.1100
     16 C16        -6.9266    0.4276   52.0741 C.ar    1  ZINC000573650873   -0.0400
     17 Cl17       -5.3228    1.0404   51.8169 Cl      1  ZINC000573650873   -0.0700
     18 C18        -7.9937    1.3025   52.1756 C.ar    1  ZINC000573650873   -0.1100
     19 C19        -9.2712    0.8137   52.3743 C.ar    1  ZINC000573650873   -0.1000
     20 C20       -13.1402   -0.9904   50.0388 C.3     1  ZINC000573650873    0.0700
     21 C21       -13.5649    0.4261   50.4317 C.3     1  ZINC000573650873    0.0600
     22 H22       -14.2289    0.3800   51.2949 H       1  ZINC000573650873    0.1400
     23 O23       -12.4072    1.1961   50.7618 O.3     1  ZINC000573650873   -0.5200
     24 C24       -14.2970    1.0826   49.2596 C.3     1  ZINC000573650873    0.4300
     25 F25       -13.4300    1.1845   48.1664 F       1  ZINC000573650873   -0.1700
     26 F26       -15.4038    0.3035   48.9059 F       1  ZINC000573650873   -0.1700
     27 F27       -14.7267    2.3600   49.6347 F       1  ZINC000573650873   -0.1800
     28 N28       -12.6042   -4.1080   53.3391 N.2     1  ZINC000573650873   -0.3400
     29 O29       -12.3822   -4.4522   54.4767 O.3     1  ZINC000573650873    0.1300
     30 H30       -11.8155   -5.5983   56.8320 H       1  ZINC000573650873    0.0600
     31 H31       -10.6667   -4.2386   56.8458 H       1  ZINC000573650873    0.0600
     32 H32       -11.5407   -4.6804   58.3321 H       1  ZINC000573650873    0.0700
     33 H33       -13.9941   -4.2448   58.5148 H       1  ZINC000573650873    0.0700
     34 H34       -14.8679   -3.4927   57.1587 H       1  ZINC000573650873    0.0600
     35 H35       -14.2690   -5.1626   57.0147 H       1  ZINC000573650873    0.0600
     36 H36       -11.5077   -1.8946   57.0479 H       1  ZINC000573650873    0.0600
     37 H37       -13.2554   -1.5843   57.1781 H       1  ZINC000573650873    0.0600
     38 H38       -12.3816   -2.3365   58.5342 H       1  ZINC000573650873    0.0700
     39 H39       -13.8524   -1.6474   55.0264 H       1  ZINC000573650873    0.1800
     40 H40       -11.1131   -2.9817   51.7220 H       1  ZINC000573650873    0.0900
     41 H41       -10.7127   -1.6342   50.6301 H       1  ZINC000573650873    0.1000
     42 H42       -11.5666   -0.2470   52.8219 H       1  ZINC000573650873    0.0800
     43 H43       -10.8884   -1.6935   53.6067 H       1  ZINC000573650873    0.0800
     44 H44        -8.5808   -2.4871   52.4625 H       1  ZINC000573650873    0.1300
     45 H45        -6.3057   -1.6189   52.0986 H       1  ZINC000573650873    0.1300
     46 H46        -7.8290    2.3669   52.0955 H       1  ZINC000573650873    0.1300
     47 H47       -10.1042    1.4965   52.4532 H       1  ZINC000573650873    0.1300
     48 H48       -12.3109   -0.9385   49.3335 H       1  ZINC000573650873    0.1000
     49 H49       -13.9807   -1.5059   49.5740 H       1  ZINC000573650873    0.1200
     50 H50       -11.9115    0.8559   51.5192 H       1  ZINC000573650873    0.3900
@<TRIPOS>BOND
     1     1     2    1
     2     1    30    1
     3     1    31    1
     4     1    32    1
     5     2     3    1
     6     2     4    1
     7     2     5    1
     8     3    33    1
     9     3    34    1
    10     3    35    1
    11     4    36    1
    12     4    37    1
    13     4    38    1
    14     5    29    1
    15     5     6    2
    16     6     7    1
    17     6    39    1
    18     7     8    1
    19     7    28    2
    20     8     9    2
    21     8    10   am
    22    10    11    1
    23    10    20    1
    24    11    12    1
    25    11    40    1
    26    11    41    1
    27    12    13    1
    28    12    42    1
    29    12    43    1
    30    13    19   ar
    31    13    14   ar
    32    14    15   ar
    33    14    44    1
    34    15    16   ar
    35    15    45    1
    36    16    17    1
    37    16    18   ar
    38    18    19   ar
    39    18    46    1
    40    19    47    1
    41    20    21    1
    42    20    48    1
    43    20    49    1
    44    21    22    1
    45    21    23    1
    46    21    24    1
    47    23    50    1
    48    24    25    1
    49    24    26    1
    50    24    27    1
    51    28    29    1
@<TRIPOS>SUBSTRUCTURE
     1 ZINC000573650873        1 TEMP              0 ****  ****    0 ROOT


##########                                Name:    ZINC000821442454
##########                DOCK_Rotatable_Bonds:                   6
##########                         Heavy_Atoms:                  26
##########                    Molecular_Weight:             398.873
##########                DOCK_Rotatable_Bonds:                   6
##########                       Formal_Charge:          -0.0399996
##########                     HBond_Acceptors:                  11
##########                        HBond_Donors:                   2
##########                         Heavy_Atoms:                  26
##########                          Grid_Score:          -31.385540
##########                     Grid_vdw_energy:          -31.293890
##########                      Grid_es_energy:           -0.091649
##########           Internal_energy_repulsive:           11.226767

@<TRIPOS>MOLECULE
ZINC000821442454
 45 47 1 0 0
SMALL
USER_CHARGES


@<TRIPOS>ATOM
      1 C1        -11.1032   -1.7650   51.5374 C.3     1  ZINC000821442454   -0.1500
      2 C2        -11.2978   -2.0886   53.0201 C.3     1  ZINC000821442454   -0.6300
      3 S3        -12.3443   -3.5610   53.1854 S.o2    1  ZINC000821442454    2.6000
      4 O4        -13.6729   -3.2778   52.7684 O.2     1  ZINC000821442454   -0.9500
      5 O5        -11.6595   -4.7146   52.7169 O.2     1  ZINC000821442454   -0.9500
      6 N6        -12.4707   -3.7968   54.8197 N.am    1  ZINC000821442454   -1.0000
      7 C7        -13.2562   -4.9167   55.3558 C.3     1  ZINC000821442454    0.1100
      8 C8        -14.2735   -4.3685   56.3616 C.3     1  ZINC000821442454   -0.1300
      9 C9        -13.5414   -3.5479   57.4258 C.3     1  ZINC000821442454   -0.1100
     10 C10       -12.8328   -2.3650   56.7621 C.3     1  ZINC000821442454   -0.1200
     11 H11       -13.5647   -1.7489   56.2397 H       1  ZINC000821442454    0.1100
     12 C12       -12.1396   -1.5388   57.8148 C.2     1  ZINC000821442454    0.5300
     13 O13       -12.4282   -0.3692   57.9551 O.2     1  ZINC000821442454   -0.5100
     14 N14       -11.1989   -2.0997   58.6002 N.am    1  ZINC000821442454   -0.6700
     15 C15       -10.5555   -1.3330   59.5772 C.ar    1  ZINC000821442454    0.1800
     16 C16        -9.4927   -0.5107   59.2252 C.ar    1  ZINC000821442454   -0.1200
     17 C17        -8.8571    0.2467   60.1867 C.ar    1  ZINC000821442454   -0.0500
     18 C18        -9.2813    0.1870   61.5126 C.ar    1  ZINC000821442454   -0.0300
     19 C19        -8.5986    1.0017   62.5485 C.2     1  ZINC000821442454    0.2200
     20 N20        -7.9847    0.5526   63.6252 N.2     1  ZINC000821442454   -0.2900
     21 N21        -7.5227    1.5692   64.2686 N.pl3   1  ZINC000821442454   -0.2200
     22 N22        -7.8241    2.6478   63.6338 N.2     1  ZINC000821442454   -0.0400
     23 N23        -8.4813    2.3370   62.5684 N.2     1  ZINC000821442454   -0.2700
     24 C24       -10.3478   -0.6384   61.8648 C.ar    1  ZINC000821442454   -0.0500
     25 C25       -10.9844   -1.3904   60.8991 C.ar    1  ZINC000821442454   -0.0800
     26 Cl26      -12.3129   -2.4188   61.3364 Cl      1  ZINC000821442454   -0.0500
     27 C27       -11.7945   -2.8937   55.7608 C.3     1  ZINC000821442454    0.1400
     28 H28       -10.6240   -2.6089   51.0412 H       1  ZINC000821442454    0.0700
     29 H29       -12.0727   -1.5753   51.0767 H       1  ZINC000821442454    0.0700
     30 H30       -10.4744   -0.8802   51.4381 H       1  ZINC000821442454    0.0800
     31 H31       -10.3283   -2.2782   53.4808 H       1  ZINC000821442454    0.1300
     32 H32       -11.7771   -1.2446   53.5163 H       1  ZINC000821442454    0.1300
     33 H33       -13.7805   -5.4180   54.5422 H       1  ZINC000821442454    0.1000
     34 H34       -12.5926   -5.6225   55.8553 H       1  ZINC000821442454    0.0700
     35 H35       -14.9919   -3.7336   55.8429 H       1  ZINC000821442454    0.0700
     36 H36       -14.7972   -5.1975   56.8378 H       1  ZINC000821442454    0.0800
     37 H37       -14.2601   -3.1771   58.1566 H       1  ZINC000821442454    0.0700
     38 H38       -12.8059   -4.1770   57.9271 H       1  ZINC000821442454    0.0800
     39 H39       -10.9680   -3.0351   58.4879 H       1  ZINC000821442454    0.4200
     40 H40        -9.1636   -0.4647   58.1975 H       1  ZINC000821442454    0.1600
     41 H41        -8.0306    0.8853   59.9122 H       1  ZINC000821442454    0.1500
     42 H42        -7.0259    1.5281   65.1007 H       1  ZINC000821442454    0.4800
     43 H43       -10.6781   -0.6861   62.8918 H       1  ZINC000821442454    0.1500
     44 H44       -11.0128   -3.4332   56.2956 H       1  ZINC000821442454    0.0800
     45 H45       -11.3565   -2.0590   55.2136 H       1  ZINC000821442454    0.1000
@<TRIPOS>BOND
     1     1     2    1
     2     1    28    1
     3     1    29    1
     4     1    30    1
     5     2     3    1
     6     2    31    1
     7     2    32    1
     8     3     4    2
     9     3     5    2
    10     3     6   am
    11     6    27    1
    12     6     7    1
    13     7     8    1
    14     7    33    1
    15     7    34    1
    16     8     9    1
    17     8    35    1
    18     8    36    1
    19     9    10    1
    20     9    37    1
    21     9    38    1
    22    10    11    1
    23    10    12    1
    24    10    27    1
    25    12    13    2
    26    12    14   am
    27    14    15    1
    28    14    39    1
    29    15    25   ar
    30    15    16   ar
    31    16    17   ar
    32    16    40    1
    33    17    18   ar
    34    17    41    1
    35    18    19    1
    36    18    24   ar
    37    19    23    1
    38    19    20    2
    39    20    21    1
    40    21    22    1
    41    21    42    1
    42    22    23    2
    43    24    25   ar
    44    24    43    1
    45    25    26    1
    46    27    44    1
    47    27    45    1
@<TRIPOS>SUBSTRUCTURE
     1 ZINC000821442454        1 TEMP              0 ****  ****    0 ROOT


##########                                Name:    ZINC000609484313
##########                DOCK_Rotatable_Bonds:                  10
##########                         Heavy_Atoms:                  26
##########                    Molecular_Weight:             361.487
##########                DOCK_Rotatable_Bonds:                  10
##########                       Formal_Charge:          -0.0200004
##########                     HBond_Acceptors:                   7
##########                        HBond_Donors:                   1
##########                         Heavy_Atoms:                  26
##########                          Grid_Score:          -31.379997
##########                     Grid_vdw_energy:          -31.227604
##########                      Grid_es_energy:           -0.152394
##########           Internal_energy_repulsive:           40.489468

@<TRIPOS>MOLECULE
ZINC000609484313
 57 58 1 0 0
SMALL
USER_CHARGES


@<TRIPOS>ATOM
      1 C1        -15.3990    1.1034   50.3028 C.3     1  ZINC000609484313   -0.1500
      2 C2        -13.9499    1.3386   50.7337 C.3     1  ZINC000609484313   -0.1300
      3 C3        -13.3160    0.0066   51.1397 C.3     1  ZINC000609484313   -0.1100
      4 C4        -11.8841    0.2490   51.6212 C.3     1  ZINC000609484313   -0.1100
      5 C5        -11.1858   -1.0944   51.8418 C.3     1  ZINC000609484313    0.0800
      6 H6        -11.4259   -1.7680   51.0192 H       1  ZINC000609484313    0.1200
      7 C7         -9.6950   -0.8823   51.8987 C.2     1  ZINC000609484313    0.4900
      8 O8         -8.9429   -1.8248   51.7687 O.2     1  ZINC000609484313   -0.5000
      9 N9         -9.1973    0.3549   52.0941 N.am    1  ZINC000609484313   -0.6300
     10 C10        -7.8171    0.5515   52.1451 C.2     1  ZINC000609484313    0.2400
     11 N11        -6.8892   -0.3588   52.0065 N.2     1  ZINC000609484313   -0.3900
     12 O12        -5.7825    0.1192   52.1006 O.3     1  ZINC000609484313    0.1000
     13 C13        -5.8295    1.4414   52.3193 C.2     1  ZINC000609484313   -0.0200
     14 C14        -4.6535    2.3685   52.4884 C.3     1  ZINC000609484313   -0.0800
     15 C15        -7.1381    1.7817   52.3520 C.2     1  ZINC000609484313   -0.2300
     16 N16       -11.6453   -1.6832   53.1068 N.3     1  ZINC000609484313   -0.5000
     17 C17       -10.8799   -1.1525   54.2435 C.3     1  ZINC000609484313    0.0400
     18 C18       -11.4401   -1.7286   55.5459 C.3     1  ZINC000609484313    0.0500
     19 N19       -11.3640   -3.1955   55.5023 N.3     1  ZINC000609484313   -0.5100
     20 C20       -11.8235   -3.7843   56.7674 C.3     1  ZINC000609484313    0.1800
     21 H21       -11.7570   -4.8707   56.7078 H       1  ZINC000609484313    0.1200
     22 C22       -10.9766   -3.3005   57.8699 C.1     1  ZINC000609484313    0.1700
     23 N23       -10.3230   -2.9272   58.7208 N.1     1  ZINC000609484313   -0.4200
     24 C24       -13.2756   -3.3755   57.0225 C.3     1  ZINC000609484313   -0.0800
     25 C25       -14.1242   -4.6269   57.2563 C.3     1  ZINC000609484313   -0.1400
     26 C26       -13.3425   -2.4757   58.2582 C.3     1  ZINC000609484313   -0.1500
     27 C27       -12.1295   -3.7262   54.3657 C.3     1  ZINC000609484313    0.0500
     28 C28       -11.5691   -3.1501   53.0632 C.3     1  ZINC000609484313    0.0400
     29 H29       -15.4193    0.4182   49.4553 H       1  ZINC000609484313    0.0500
     30 H30       -15.9593    0.6722   51.1322 H       1  ZINC000609484313    0.0500
     31 H31       -15.8505    2.0524   50.0135 H       1  ZINC000609484313    0.0500
     32 H32       -13.3895    1.7698   49.9041 H       1  ZINC000609484313    0.0600
     33 H33       -13.9295    2.0239   51.5812 H       1  ZINC000609484313    0.0600
     34 H34       -13.8985   -0.4429   51.9438 H       1  ZINC000609484313    0.0800
     35 H35       -13.3018   -0.6655   50.2816 H       1  ZINC000609484313    0.0600
     36 H36       -11.3403    0.8221   50.8703 H       1  ZINC000609484313    0.0700
     37 H37       -11.9052    0.8056   52.5581 H       1  ZINC000609484313    0.0800
     38 H38        -9.7987    1.1086   52.1992 H       1  ZINC000609484313    0.4200
     39 H39        -3.7275    1.7993   52.4065 H       1  ZINC000609484313    0.0800
     40 H40        -4.6796    3.1337   51.7126 H       1  ZINC000609484313    0.0900
     41 H41        -4.7029    2.8430   53.4685 H       1  ZINC000609484313    0.0900
     42 H42        -7.5672    2.7605   52.5068 H       1  ZINC000609484313    0.1900
     43 H43        -9.8326   -1.4366   54.1409 H       1  ZINC000609484313    0.0800
     44 H44       -10.9620   -0.0656   54.2615 H       1  ZINC000609484313    0.0800
     45 H45       -10.8554   -1.3589   56.3883 H       1  ZINC000609484313    0.0900
     46 H46       -12.4796   -1.4217   55.6617 H       1  ZINC000609484313    0.0400
     47 H47       -13.6578   -2.8336   56.1574 H       1  ZINC000609484313    0.0800
     48 H48       -13.7419   -5.1687   58.1215 H       1  ZINC000609484313    0.0600
     49 H49       -15.1587   -4.3356   57.4381 H       1  ZINC000609484313    0.0500
     50 H50       -14.0766   -5.2679   56.3760 H       1  ZINC000609484313    0.0700
     51 H51       -14.3844   -2.2605   58.4949 H       1  ZINC000609484313    0.0700
     52 H52       -12.8752   -2.9826   59.1025 H       1  ZINC000609484313    0.0600
     53 H53       -12.8154   -1.5430   58.0575 H       1  ZINC000609484313    0.0500
     54 H54       -12.0473   -4.8130   54.3477 H       1  ZINC000609484313    0.0900
     55 H55       -13.1768   -3.4421   54.4682 H       1  ZINC000609484313    0.0400
     56 H56       -12.1538   -3.5198   52.2209 H       1  ZINC000609484313    0.0800
     57 H57       -10.5296   -3.4570   52.9474 H       1  ZINC000609484313    0.0800
@<TRIPOS>BOND
     1     1     2    1
     2     1    29    1
     3     1    30    1
     4     1    31    1
     5     2     3    1
     6     2    32    1
     7     2    33    1
     8     3     4    1
     9     3    34    1
    10     3    35    1
    11     4     5    1
    12     4    36    1
    13     4    37    1
    14     5     6    1
    15     5     7    1
    16     5    16    1
    17     7     8    2
    18     7     9   am
    19     9    10    1
    20     9    38    1
    21    10    15    1
    22    10    11    2
    23    11    12    1
    24    12    13    1
    25    13    14    1
    26    13    15    2
    27    14    39    1
    28    14    40    1
    29    14    41    1
    30    15    42    1
    31    16    28    1
    32    16    17    1
    33    17    18    1
    34    17    43    1
    35    17    44    1
    36    18    19    1
    37    18    45    1
    38    18    46    1
    39    19    20    1
    40    19    27    1
    41    20    21    1
    42    20    22    1
    43    20    24    1
    44    22    23    3
    45    24    25    1
    46    24    26    1
    47    24    47    1
    48    25    48    1
    49    25    49    1
    50    25    50    1
    51    26    51    1
    52    26    52    1
    53    26    53    1
    54    27    28    1
    55    27    54    1
    56    27    55    1
    57    28    56    1
    58    28    57    1
@<TRIPOS>SUBSTRUCTURE
     1 ZINC000609484313        1 TEMP              0 ****  ****    0 ROOT


##########                                Name:    ZINC001079355651
##########                DOCK_Rotatable_Bonds:                   5
##########                         Heavy_Atoms:                  25
##########                    Molecular_Weight:             353.851
##########                DOCK_Rotatable_Bonds:                   5
##########                       Formal_Charge:           0.0199997
##########                     HBond_Acceptors:                   5
##########                        HBond_Donors:                   1
##########                         Heavy_Atoms:                  25
##########                          Grid_Score:          -31.373854
##########                     Grid_vdw_energy:          -30.898132
##########                      Grid_es_energy:           -0.475722
##########           Internal_energy_repulsive:            4.214463

@<TRIPOS>MOLECULE
ZINC001079355651
 45 47 1 0 0
SMALL
USER_CHARGES


@<TRIPOS>ATOM
      1 C1         -0.3789    1.9875   47.4562 C.3     1  ZINC001079355651   -0.1500
      2 C2         -0.3273    1.5740   48.9284 C.3     1  ZINC001079355651   -0.1000
      3 H3         -0.2892    0.4882   49.0149 H       1  ZINC001079355651    0.0900
      4 C4         -1.5533    2.1294   49.6846 C.3     1  ZINC001079355651    0.0300
      5 N5         -1.0288    2.5062   51.0224 N.3     1  ZINC001079355651   -0.5100
      6 C6         -1.9104    3.4813   51.6779 C.3     1  ZINC001079355651    0.1600
      7 C7         -3.2191    2.8607   51.9408 C.1     1  ZINC001079355651   -0.1400
      8 C8         -4.2627    2.3657   52.1504 C.1     1  ZINC001079355651   -0.1300
      9 C9         -5.5358    1.7619   52.4061 C.ar    1  ZINC001079355651    0.0300
     10 C10        -6.5216    2.4705   53.0937 C.ar    1  ZINC001079355651   -0.0900
     11 C11        -7.7466    1.8835   53.3374 C.ar    1  ZINC001079355651   -0.1000
     12 C12        -7.9988    0.5954   52.9016 C.ar    1  ZINC001079355651   -0.1000
     13 C13        -7.0248   -0.1139   52.2190 C.ar    1  ZINC001079355651   -0.0300
     14 Cl14       -7.3504   -1.7305   51.6765 Cl      1  ZINC001079355651   -0.0600
     15 C15        -5.7974    0.4646   51.9637 C.ar    1  ZINC001079355651   -0.0900
     16 C16         0.3032    3.0993   50.7384 C.3     1  ZINC001079355651    0.0200
     17 C17         0.8955    2.2099   49.6210 C.3     1  ZINC001079355651    0.1500
     18 H18         1.4586    2.8172   48.9123 H       1  ZINC001079355651    0.1000
     19 N19         1.7559    1.1737   50.1977 N.am    1  ZINC001079355651   -0.7100
     20 C20         3.0657    1.4201   50.3983 C.2     1  ZINC001079355651    0.5600
     21 O21         3.5327    2.5021   50.1021 O.2     1  ZINC001079355651   -0.5300
     22 C22         3.9360    0.3716   50.9798 C.ar    1  ZINC001079355651   -0.0900
     23 C23         3.4684   -0.9342   51.1556 C.ar    1  ZINC001079355651   -0.1400
     24 C24         4.3138   -1.8805   51.7017 C.ar    1  ZINC001079355651    0.1000
     25 N25         5.5443   -1.5657   52.0545 N.ar    1  ZINC001079355651   -0.4700
     26 C26         6.0245   -0.3472   51.9059 C.ar    1  ZINC001079355651    0.1000
     27 C27         5.2496    0.6592   51.3627 C.ar    1  ZINC001079355651   -0.1200
     28 H28         0.5168    1.6314   46.9472 H       1  ZINC001079355651    0.0600
     29 H29        -1.2609    1.5517   46.9871 H       1  ZINC001079355651    0.0700
     30 H30        -0.4292    3.0740   47.3855 H       1  ZINC001079355651    0.0600
     31 H31        -1.9516    3.0050   49.1719 H       1  ZINC001079355651    0.0600
     32 H32        -2.3211    1.3615   49.7796 H       1  ZINC001079355651    0.0900
     33 H33        -1.4635    3.7996   52.6198 H       1  ZINC001079355651    0.0700
     34 H34        -2.0425    4.3463   51.0279 H       1  ZINC001079355651    0.1100
     35 H35        -6.3262    3.4763   53.4351 H       1  ZINC001079355651    0.1300
     36 H36        -8.5100    2.4312   53.8699 H       1  ZINC001079355651    0.1400
     37 H37        -8.9591    0.1406   53.0949 H       1  ZINC001079355651    0.1400
     38 H38        -5.0383   -0.0891   51.4312 H       1  ZINC001079355651    0.1400
     39 H39         0.1956    4.1268   50.3907 H       1  ZINC001079355651    0.0600
     40 H40         0.9333    3.0618   51.6271 H       1  ZINC001079355651    0.0900
     41 H41         1.3828    0.3104   50.4353 H       1  ZINC001079355651    0.4000
     42 H42         2.4613   -1.1991   50.8692 H       1  ZINC001079355651    0.1400
     43 H43         3.9618   -2.8918   51.8419 H       1  ZINC001079355651    0.1600
     44 H44         7.0388   -0.1338   52.2091 H       1  ZINC001079355651    0.1700
     45 H45         5.6496    1.6554   51.2439 H       1  ZINC001079355651    0.1500
@<TRIPOS>BOND
     1     1     2    1
     2     1    28    1
     3     1    29    1
     4     1    30    1
     5     2     3    1
     6     2    17    1
     7     2     4    1
     8     4     5    1
     9     4    31    1
    10     4    32    1
    11     5     6    1
    12     5    16    1
    13     6     7    1
    14     6    33    1
    15     6    34    1
    16     7     8    3
    17     8     9    1
    18     9    15   ar
    19     9    10   ar
    20    10    11   ar
    21    10    35    1
    22    11    12   ar
    23    11    36    1
    24    12    13   ar
    25    12    37    1
    26    13    14    1
    27    13    15   ar
    28    15    38    1
    29    16    17    1
    30    16    39    1
    31    16    40    1
    32    17    18    1
    33    17    19    1
    34    19    20   am
    35    19    41    1
    36    20    21    2
    37    20    22    1
    38    22    27   ar
    39    22    23   ar
    40    23    24   ar
    41    23    42    1
    42    24    25   ar
    43    24    43    1
    44    25    26   ar
    45    26    27   ar
    46    26    44    1
    47    27    45    1
@<TRIPOS>SUBSTRUCTURE
     1 ZINC001079355651        1 TEMP              0 ****  ****    0 ROOT


##########                                Name:    ZINC000995593866
##########                DOCK_Rotatable_Bonds:                   7
##########                         Heavy_Atoms:                  24
##########                    Molecular_Weight:             342.389
##########                DOCK_Rotatable_Bonds:                   7
##########                       Formal_Charge:                0.03
##########                     HBond_Acceptors:                   8
##########                        HBond_Donors:                   1
##########                         Heavy_Atoms:                  24
##########                          Grid_Score:          -31.355846
##########                     Grid_vdw_energy:          -31.020714
##########                      Grid_es_energy:           -0.335134
##########           Internal_energy_repulsive:           13.660296

@<TRIPOS>MOLECULE
ZINC000995593866
 48 50 1 0 0
SMALL
USER_CHARGES


@<TRIPOS>ATOM
      1 C1        -13.8472   -5.0965   55.7114 C.3     1  ZINC000995593866   -0.1400
      2 C2        -13.5669   -3.6417   55.3291 C.3     1  ZINC000995593866   -0.0800
      3 C3        -14.5511   -3.1762   54.2541 C.3     1  ZINC000995593866   -0.1400
      4 C4        -13.6584   -2.7325   56.5736 C.3     1  ZINC000995593866    0.1200
      5 N5        -12.2619   -2.6153   57.0541 N.am    1  ZINC000995593866   -0.6300
      6 C6        -11.8236   -2.6136   58.3287 C.2     1  ZINC000995593866    0.5400
      7 O7        -12.6149   -2.7156   59.2422 O.2     1  ZINC000995593866   -0.5300
      8 C8        -10.3505   -2.4848   58.6187 C.3     1  ZINC000995593866   -0.1300
      9 C9        -10.1126   -1.2734   59.5225 C.3     1  ZINC000995593866   -0.1000
     10 C10        -8.6773   -1.1838   60.0674 C.3     1  ZINC000995593866   -0.1300
     11 C11        -8.7654    0.3328   59.8292 C.3     1  ZINC000995593866   -0.1400
     12 C12        -9.8162    0.0228   58.7500 C.3     1  ZINC000995593866   -0.1400
     13 C13       -11.4566   -2.5002   55.8161 C.3     1  ZINC000995593866    0.1100
     14 C14       -12.1152   -3.4886   54.8296 C.3     1  ZINC000995593866    0.0800
     15 H15       -11.6018   -4.4496   54.8566 H       1  ZINC000995593866    0.0700
     16 N16       -12.0969   -2.9390   53.4674 N.3     1  ZINC000995593866   -0.6800
     17 C17       -10.8487   -3.2879   52.7758 C.3     1  ZINC000995593866    0.1500
     18 C18        -9.9644   -2.0707   52.6908 C.2     1  ZINC000995593866    0.1900
     19 N19        -8.8371   -1.9690   52.0286 N.2     1  ZINC000995593866   -0.4300
     20 C20        -8.4051   -0.7130   52.2398 C.2     1  ZINC000995593866    0.0900
     21 C21        -7.1437   -0.0992   51.6892 C.3     1  ZINC000995593866    0.3800
     22 F22        -7.3372    1.2732   51.4995 F       1  ZINC000995593866   -0.1800
     23 F23        -6.0940   -0.3018   52.5917 F       1  ZINC000995593866   -0.1700
     24 N24        -9.2754   -0.1258   53.0055 N.2     1  ZINC000995593866   -0.3400
     25 O25       -10.1819   -0.8867   53.2712 O.3     1  ZINC000995593866    0.1000
     26 H26       -13.1644   -5.4018   56.5043 H       1  ZINC000995593866    0.0600
     27 H27       -14.8752   -5.1884   56.0617 H       1  ZINC000995593866    0.0600
     28 H28       -13.7016   -5.7355   54.8405 H       1  ZINC000995593866    0.0600
     29 H29       -15.5700   -3.2659   54.6310 H       1  ZINC000995593866    0.0700
     30 H30       -14.3476   -2.1357   54.0011 H       1  ZINC000995593866    0.0700
     31 H31       -14.4371   -3.7955   53.3644 H       1  ZINC000995593866    0.0600
     32 H32       -14.0499   -1.7527   56.3004 H       1  ZINC000995593866    0.0800
     33 H33       -14.2853   -3.1943   57.3363 H       1  ZINC000995593866    0.0900
     34 H34        -9.9986   -3.3866   59.1197 H       1  ZINC000995593866    0.0900
     35 H35        -9.8062   -2.3528   57.6836 H       1  ZINC000995593866    0.0900
     36 H36       -10.8797   -1.1596   60.2884 H       1  ZINC000995593866    0.1000
     37 H37        -8.5919   -1.4563   61.1194 H       1  ZINC000995593866    0.0700
     38 H38        -7.9397   -1.6825   59.4387 H       1  ZINC000995593866    0.0800
     39 H39        -9.1632    0.8861   60.6798 H       1  ZINC000995593866    0.0800
     40 H40        -7.8473    0.7666   59.4327 H       1  ZINC000995593866    0.0700
     41 H41        -9.3899   -0.1459   57.7611 H       1  ZINC000995593866    0.0800
     42 H42       -10.6502    0.7246   58.7383 H       1  ZINC000995593866    0.0700
     43 H43       -11.5043   -1.4841   55.4247 H       1  ZINC000995593866    0.0900
     44 H44       -10.4224   -2.7867   56.0074 H       1  ZINC000995593866    0.0800
     45 H45       -12.9004   -3.2487   52.9417 H       1  ZINC000995593866    0.3600
     46 H46       -10.3339   -4.0731   53.3292 H       1  ZINC000995593866    0.1200
     47 H47       -11.0772   -3.6419   51.7705 H       1  ZINC000995593866    0.0800
     48 H48        -6.8983   -0.5668   50.7356 H       1  ZINC000995593866    0.1500
@<TRIPOS>BOND
     1     1     2    1
     2     1    26    1
     3     1    27    1
     4     1    28    1
     5     2    14    1
     6     2     3    1
     7     2     4    1
     8     3    29    1
     9     3    30    1
    10     3    31    1
    11     4     5    1
    12     4    32    1
    13     4    33    1
    14     5     6   am
    15     5    13    1
    16     6     7    2
    17     6     8    1
    18     8     9    1
    19     8    34    1
    20     8    35    1
    21     9    12    1
    22     9    10    1
    23     9    36    1
    24    10    11    1
    25    10    37    1
    26    10    38    1
    27    11    12    1
    28    11    39    1
    29    11    40    1
    30    12    41    1
    31    12    42    1
    32    13    14    1
    33    13    43    1
    34    13    44    1
    35    14    15    1
    36    14    16    1
    37    16    17    1
    38    16    45    1
    39    17    18    1
    40    17    46    1
    41    17    47    1
    42    18    25    1
    43    18    19    2
    44    19    20    1
    45    20    21    1
    46    20    24    2
    47    21    22    1
    48    21    23    1
    49    21    48    1
    50    24    25    1
@<TRIPOS>SUBSTRUCTURE
     1 ZINC000995593866        1 TEMP              0 ****  ****    0 ROOT


##########                                Name:    ZINC000484424341
##########                DOCK_Rotatable_Bonds:                   7
##########                         Heavy_Atoms:                  26
##########                    Molecular_Weight:             359.425
##########                DOCK_Rotatable_Bonds:                   7
##########                       Formal_Charge:          -0.0100009
##########                     HBond_Acceptors:                   7
##########                        HBond_Donors:                   1
##########                         Heavy_Atoms:                  26
##########                          Grid_Score:          -31.345436
##########                     Grid_vdw_energy:          -31.229139
##########                      Grid_es_energy:           -0.116297
##########           Internal_energy_repulsive:           19.061193

@<TRIPOS>MOLECULE
ZINC000484424341
 51 53 1 0 0
SMALL
USER_CHARGES


@<TRIPOS>ATOM
      1 C1         -1.2244    0.0172   46.4330 C.3     1  ZINC000484424341    0.0300
      2 O2          0.0122    0.7104   46.2528 O.3     1  ZINC000484424341   -0.3800
      3 C3         -0.0273    2.0824   46.6507 C.3     1  ZINC000484424341    0.1300
      4 H4         -1.0315    2.4768   46.4957 H       1  ZINC000484424341    0.0700
      5 C5          0.9707    2.8850   45.8137 C.3     1  ZINC000484424341   -0.1700
      6 C6          0.3365    2.1931   48.1089 C.ar    1  ZINC000484424341   -0.0700
      7 C7          1.5427    1.6898   48.5599 C.ar    1  ZINC000484424341   -0.1000
      8 C8          1.8806    1.7893   49.8974 C.ar    1  ZINC000484424341   -0.1000
      9 C9          1.0136    2.3920   50.7871 C.ar    1  ZINC000484424341   -0.1100
     10 C10        -0.1994    2.8989   50.3374 C.ar    1  ZINC000484424341    0.1400
     11 N11        -1.0789    3.5099   51.2348 N.am    1  ZINC000484424341   -0.6400
     12 C12        -2.1728    2.8486   51.6621 C.2     1  ZINC000484424341    0.5100
     13 O13        -2.3940    1.7224   51.2674 O.2     1  ZINC000484424341   -0.4900
     14 C14        -3.1129    3.5017   52.6214 C.2     1  ZINC000484424341    0.5200
     15 O15        -2.7586    4.4786   53.2484 O.2     1  ZINC000484424341   -0.5200
     16 N16        -4.3548    3.0063   52.7909 N.am    1  ZINC000484424341   -0.5800
     17 C17        -5.3771    3.5480   53.6979 C.3     1  ZINC000484424341    0.1100
     18 C18        -6.6412    2.6776   53.5359 C.3     1  ZINC000484424341   -0.1500
     19 C19        -6.4478    2.0417   52.1339 C.3     1  ZINC000484424341    0.1500
     20 H20        -6.7679    2.7252   51.3474 H       1  ZINC000484424341    0.1100
     21 N21        -7.1561    0.7632   52.0350 N.am    1  ZINC000484424341   -0.6100
     22 C22        -6.6009   -0.4454   51.4143 C.3     1  ZINC000484424341    0.1000
     23 C23        -7.4815   -1.6098   51.9194 C.3     1  ZINC000484424341   -0.1300
     24 C24        -8.8100   -0.8854   52.2375 C.3     1  ZINC000484424341   -0.1600
     25 C25        -8.3960    0.5447   52.5061 C.2     1  ZINC000484424341    0.5200
     26 O26        -9.0852    1.3751   53.0594 O.2     1  ZINC000484424341   -0.5200
     27 C27        -4.9153    1.8351   52.0925 C.3     1  ZINC000484424341    0.0900
     28 C28        -0.5330    2.8023   48.9924 C.ar    1  ZINC000484424341   -0.1300
     29 H29        -2.0018    0.5013   45.8419 H       1  ZINC000484424341    0.0400
     30 H30        -1.1117   -1.0171   46.1078 H       1  ZINC000484424341    0.0900
     31 H31        -1.5026    0.0385   47.4866 H       1  ZINC000484424341    0.0400
     32 H32         1.9749    2.4906   45.9687 H       1  ZINC000484424341    0.0700
     33 H33         0.7077    2.8049   44.7590 H       1  ZINC000484424341    0.0600
     34 H34         0.9407    3.9315   46.1173 H       1  ZINC000484424341    0.0700
     35 H35         2.2225    1.2175   47.8663 H       1  ZINC000484424341    0.1300
     36 H36         2.8234    1.3946   50.2464 H       1  ZINC000484424341    0.1300
     37 H37         1.2779    2.4691   51.8315 H       1  ZINC000484424341    0.1300
     38 H38        -0.9021    4.4099   51.5504 H       1  ZINC000484424341    0.4200
     39 H39        -5.0227    3.4989   54.7275 H       1  ZINC000484424341    0.0800
     40 H40        -5.6011    4.5805   53.4296 H       1  ZINC000484424341    0.0800
     41 H41        -6.6806    1.9077   54.3065 H       1  ZINC000484424341    0.0900
     42 H42        -7.5396    3.2944   53.5590 H       1  ZINC000484424341    0.0900
     43 H43        -6.6588   -0.3722   50.3283 H       1  ZINC000484424341    0.0800
     44 H44        -5.5674   -0.5901   51.7288 H       1  ZINC000484424341    0.0800
     45 H45        -7.6225   -2.3587   51.1401 H       1  ZINC000484424341    0.0900
     46 H46        -7.0571   -2.0586   52.8175 H       1  ZINC000484424341    0.0800
     47 H47        -9.4864   -0.9369   51.3843 H       1  ZINC000484424341    0.1100
     48 H48        -9.2774   -1.3169   53.1226 H       1  ZINC000484424341    0.1000
     49 H49        -4.5648    1.8006   51.0610 H       1  ZINC000484424341    0.0900
     50 H50        -4.6416    0.9201   52.6177 H       1  ZINC000484424341    0.0900
     51 H51        -1.4749    3.1956   48.6394 H       1  ZINC000484424341    0.1300
@<TRIPOS>BOND
     1     1     2    1
     2     1    29    1
     3     1    30    1
     4     1    31    1
     5     2     3    1
     6     3     4    1
     7     3     5    1
     8     3     6    1
     9     5    32    1
    10     5    33    1
    11     5    34    1
    12     6    28   ar
    13     6     7   ar
    14     7     8   ar
    15     7    35    1
    16     8     9   ar
    17     8    36    1
    18     9    10   ar
    19     9    37    1
    20    10    11    1
    21    10    28   ar
    22    11    12   am
    23    11    38    1
    24    12    13    2
    25    12    14    1
    26    14    15    2
    27    14    16   am
    28    16    27    1
    29    16    17    1
    30    17    18    1
    31    17    39    1
    32    17    40    1
    33    18    19    1
    34    18    41    1
    35    18    42    1
    36    19    20    1
    37    19    21    1
    38    19    27    1
    39    21    25   am
    40    21    22    1
    41    22    23    1
    42    22    43    1
    43    22    44    1
    44    23    24    1
    45    23    45    1
    46    23    46    1
    47    24    25    1
    48    24    47    1
    49    24    48    1
    50    25    26    2
    51    27    49    1
    52    27    50    1
    53    28    51    1
@<TRIPOS>SUBSTRUCTURE
     1 ZINC000484424341        1 TEMP              0 ****  ****    0 ROOT


##########                                Name:    ZINC000089894387
##########                DOCK_Rotatable_Bonds:                   8
##########                         Heavy_Atoms:                  22
##########                    Molecular_Weight:             326.823
##########                DOCK_Rotatable_Bonds:                   8
##########                       Formal_Charge:          -0.0300003
##########                     HBond_Acceptors:                   6
##########                        HBond_Donors:                   2
##########                         Heavy_Atoms:                  22
##########                          Grid_Score:          -31.328756
##########                     Grid_vdw_energy:          -30.335451
##########                      Grid_es_energy:           -0.993305
##########           Internal_energy_repulsive:           21.557323

@<TRIPOS>MOLECULE
ZINC000089894387
 45 46 1 0 0
SMALL
USER_CHARGES


@<TRIPOS>ATOM
      1 C1          0.1282    3.8936   47.1559 C.3     1  ZINC000089894387   -0.1700
      2 C2         -0.0060    2.9885   48.3822 C.3     1  ZINC000089894387    0.1700
      3 H3          0.8490    3.1402   49.0411 H       1  ZINC000089894387    0.0900
      4 N4         -1.2400    3.3181   49.0996 N.am    1  ZINC000089894387   -0.7400
      5 C5         -1.3542    3.0305   50.4114 C.2     1  ZINC000089894387    0.7100
      6 O6         -0.4337    2.4961   50.9990 O.2     1  ZINC000089894387   -0.5900
      7 N7         -2.4889    3.3351   51.0718 N.am    1  ZINC000089894387   -0.7500
      8 C8         -2.6124    3.0241   52.4980 C.3     1  ZINC000089894387    0.1400
      9 C9         -4.0896    3.0335   52.8961 C.3     1  ZINC000089894387    0.0500
     10 O10        -4.8338    2.2230   51.9843 O.3     1  ZINC000089894387   -0.3100
     11 C11        -6.0653    1.8129   52.3870 C.ar    1  ZINC000089894387    0.1400
     12 C12        -6.9094    2.6938   53.0472 C.ar    1  ZINC000089894387   -0.2100
     13 C13        -8.1610    2.2752   53.4559 C.ar    1  ZINC000089894387   -0.0700
     14 C14        -8.5732    0.9793   53.2075 C.ar    1  ZINC000089894387   -0.1500
     15 C15        -7.7332    0.0979   52.5493 C.ar    1  ZINC000089894387    0.0000
     16 Cl16       -8.2538   -1.5288   52.2389 Cl      1  ZINC000089894387   -0.0600
     17 C17        -6.4824    0.5143   52.1332 C.ar    1  ZINC000089894387   -0.1500
     18 C18        -0.0515    1.5262   47.9343 C.3     1  ZINC000089894387   -0.1000
     19 C19        -1.0703    1.3688   46.8013 C.3     1  ZINC000089894387   -0.1600
     20 C20        -1.0520   -0.0799   46.3067 C.3     1  ZINC000089894387    0.0600
     21 O21         0.2683   -0.4189   45.8778 O.3     1  ZINC000089894387   -0.3800
     22 C22         1.2557   -0.3358   46.9076 C.3     1  ZINC000089894387    0.0600
     23 C23         1.3302    1.1027   47.4263 C.3     1  ZINC000089894387   -0.1500
     24 H24        -0.7267    3.7418   46.4970 H       1  ZINC000089894387    0.0600
     25 H25         0.1607    4.9353   47.4750 H       1  ZINC000089894387    0.0600
     26 H26         1.0464    3.6484   46.6221 H       1  ZINC000089894387    0.0700
     27 H27        -1.9749    3.7433   48.6305 H       1  ZINC000089894387    0.3900
     28 H28        -3.2238    3.7603   50.6027 H       1  ZINC000089894387    0.4000
     29 H29        -2.1899    2.0384   52.6929 H       1  ZINC000089894387    0.0800
     30 H30        -2.0744    3.7717   53.0809 H       1  ZINC000089894387    0.0900
     31 H31        -4.1965    2.6365   53.9056 H       1  ZINC000089894387    0.0900
     32 H32        -4.4677    4.0554   52.8656 H       1  ZINC000089894387    0.0700
     33 H33        -6.5881    3.7063   53.2420 H       1  ZINC000089894387    0.1300
     34 H34        -8.8179    2.9609   53.9703 H       1  ZINC000089894387    0.1400
     35 H35        -9.5520    0.6541   53.5278 H       1  ZINC000089894387    0.1400
     36 H36        -5.8271   -0.1733   51.6193 H       1  ZINC000089894387    0.1400
     37 H37        -0.3396    0.8960   48.7757 H       1  ZINC000089894387    0.0800
     38 H38        -2.0660    1.6154   47.1699 H       1  ZINC000089894387    0.0700
     39 H39        -0.8087    2.0371   45.9808 H       1  ZINC000089894387    0.0800
     40 H40        -1.3529   -0.7443   47.1167 H       1  ZINC000089894387    0.0500
     41 H41        -1.7444   -0.1878   45.4718 H       1  ZINC000089894387    0.0900
     42 H42         0.9849   -1.0035   47.7255 H       1  ZINC000089894387    0.0500
     43 H43         2.2257   -0.6279   46.5055 H       1  ZINC000089894387    0.1000
     44 H44         1.6402    1.7656   46.6184 H       1  ZINC000089894387    0.0800
     45 H45         2.0511    1.1590   48.2419 H       1  ZINC000089894387    0.0800
@<TRIPOS>BOND
     1     1     2    1
     2     1    24    1
     3     1    25    1
     4     1    26    1
     5     2     3    1
     6     2     4    1
     7     2    18    1
     8     4     5   am
     9     4    27    1
    10     5     6    2
    11     5     7   am
    12     7     8    1
    13     7    28    1
    14     8     9    1
    15     8    29    1
    16     8    30    1
    17     9    10    1
    18     9    31    1
    19     9    32    1
    20    10    11    1
    21    11    17   ar
    22    11    12   ar
    23    12    13   ar
    24    12    33    1
    25    13    14   ar
    26    13    34    1
    27    14    15   ar
    28    14    35    1
    29    15    16    1
    30    15    17   ar
    31    17    36    1
    32    18    23    1
    33    18    19    1
    34    18    37    1
    35    19    20    1
    36    19    38    1
    37    19    39    1
    38    20    21    1
    39    20    40    1
    40    20    41    1
    41    21    22    1
    42    22    23    1
    43    22    42    1
    44    22    43    1
    45    23    44    1
    46    23    45    1
@<TRIPOS>SUBSTRUCTURE
     1 ZINC000089894387        1 TEMP              0 ****  ****    0 ROOT


##########                                Name:    ZINC000484900616
##########                DOCK_Rotatable_Bonds:                  10
##########                         Heavy_Atoms:                  29
##########                    Molecular_Weight:             415.556
##########                DOCK_Rotatable_Bonds:                  10
##########                       Formal_Charge:        -1.49012e-08
##########                     HBond_Acceptors:                   7
##########                        HBond_Donors:                   1
##########                         Heavy_Atoms:                  29
##########                          Grid_Score:          -31.325661
##########                     Grid_vdw_energy:          -31.225521
##########                      Grid_es_energy:           -0.100139
##########           Internal_energy_repulsive:           15.891660

@<TRIPOS>MOLECULE
ZINC000484900616
 58 60 1 0 0
SMALL
USER_CHARGES


@<TRIPOS>ATOM
      1 C1          0.1760    3.5794   50.4913 C.3     1  ZINC000484900616   -0.1500
      2 C2          0.1392    2.7476   51.7749 C.3     1  ZINC000484900616    0.0600
      3 O3         -1.1976    2.7888   52.3401 O.3     1  ZINC000484900616   -0.3400
      4 C4         -2.1470    2.0600   51.7199 C.2     1  ZINC000484900616    0.5500
      5 O5         -1.8400    1.2999   50.8224 O.2     1  ZINC000484900616   -0.5000
      6 C6         -3.5545    2.1845   52.1293 C.2     1  ZINC000484900616    0.0200
      7 C7         -3.9921    3.1251   52.9975 C.2     1  ZINC000484900616   -0.2400
      8 S8         -5.6779    2.9378   53.2101 S.3     1  ZINC000484900616    0.2900
      9 C9         -5.7016    1.6160   52.1290 C.2     1  ZINC000484900616    0.0300
     10 C10        -6.9353    0.8351   51.7554 C.3     1  ZINC000484900616    0.1500
     11 H11        -7.2885    1.1344   50.7687 H       1  ZINC000484900616    0.0900
     12 C12        -6.6403   -0.6854   51.7844 C.3     1  ZINC000484900616   -0.1200
     13 C13        -8.0573   -1.2751   52.0108 C.3     1  ZINC000484900616   -0.1400
     14 C14        -8.7206   -0.2386   52.9419 C.3     1  ZINC000484900616    0.0500
     15 N15        -7.9967    1.0356   52.7648 N.3     1  ZINC000484900616   -0.5100
     16 C16        -8.9138    2.1108   52.3638 C.3     1  ZINC000484900616    0.0300
     17 C17        -9.6234    2.6458   53.5810 C.2     1  ZINC000484900616    0.5200
     18 O18       -10.0810    3.7689   53.5713 O.2     1  ZINC000484900616   -0.5100
     19 N19        -9.7494    1.8762   54.6801 N.am    1  ZINC000484900616   -0.7300
     20 C20       -10.4407    2.3957   55.8627 C.3     1  ZINC000484900616    0.1900
     21 H21       -10.1479    3.4324   56.0287 H       1  ZINC000484900616    0.1000
     22 C22       -11.9531    2.3219   55.6427 C.3     1  ZINC000484900616   -0.1600
     23 C23       -10.0673    1.5694   57.0664 C.ar    1  ZINC000484900616   -0.1000
     24 C24       -10.4425    0.2407   57.1361 C.ar    1  ZINC000484900616   -0.1100
     25 C25       -10.0999   -0.5172   58.2402 C.ar    1  ZINC000484900616   -0.1100
     26 C26        -9.3818    0.0533   59.2744 C.ar    1  ZINC000484900616   -0.0800
     27 C27        -9.0087   -0.7728   60.4783 C.3     1  ZINC000484900616   -0.0900
     28 C28       -10.2800   -1.2582   61.1775 C.3     1  ZINC000484900616   -0.1500
     29 C29        -9.0054    1.3816   59.2041 C.ar    1  ZINC000484900616   -0.1100
     30 C30        -9.3447    2.1385   58.0982 C.ar    1  ZINC000484900616   -0.1000
     31 N31        -4.5214    1.3827   51.6741 N.2     1  ZINC000484900616   -0.4300
     32 H32        -0.5349    3.1708   49.7730 H       1  ZINC000484900616    0.0700
     33 H33        -0.0903    4.6114   50.7193 H       1  ZINC000484900616    0.0700
     34 H34         1.1796    3.5484   50.0669 H       1  ZINC000484900616    0.0800
     35 H35         0.4055    1.7156   51.5468 H       1  ZINC000484900616    0.0700
     36 H36         0.8502    3.1560   52.4931 H       1  ZINC000484900616    0.0700
     37 H37        -3.3773    3.8720   53.4777 H       1  ZINC000484900616    0.1900
     38 H38        -6.2251   -1.0208   50.8339 H       1  ZINC000484900616    0.0900
     39 H39        -5.9755   -0.9385   52.6102 H       1  ZINC000484900616    0.0800
     40 H40        -8.5993   -1.3487   51.0679 H       1  ZINC000484900616    0.0700
     41 H41        -7.9964   -2.2480   52.4985 H       1  ZINC000484900616    0.0800
     42 H42        -9.7675   -0.1097   52.6673 H       1  ZINC000484900616    0.0600
     43 H43        -8.6447   -0.5687   53.9780 H       1  ZINC000484900616    0.0900
     44 H44        -8.3480    2.9135   51.8910 H       1  ZINC000484900616    0.1100
     45 H45        -9.6469    1.7188   51.6588 H       1  ZINC000484900616    0.0700
     46 H46        -9.3823    0.9784   54.6884 H       1  ZINC000484900616    0.4000
     47 H47       -12.4675    2.7083   56.5225 H       1  ZINC000484900616    0.0700
     48 H48       -12.2232    2.9196   54.7721 H       1  ZINC000484900616    0.0700
     49 H49       -12.2459    1.2851   55.4768 H       1  ZINC000484900616    0.0600
     50 H50       -11.0036   -0.2050   56.3281 H       1  ZINC000484900616    0.1200
     51 H51       -10.3937   -1.5551   58.2950 H       1  ZINC000484900616    0.1200
     52 H52        -8.4182   -1.6321   60.1604 H       1  ZINC000484900616    0.0700
     53 H53        -8.4236   -0.1652   61.1687 H       1  ZINC000484900616    0.0700
     54 H54       -10.8705   -0.3989   61.4955 H       1  ZINC000484900616    0.0600
     55 H55       -10.8650   -1.8658   60.4872 H       1  ZINC000484900616    0.0600
     56 H56       -10.0101   -1.8557   62.0483 H       1  ZINC000484900616    0.0600
     57 H57        -8.4440    1.8273   60.0119 H       1  ZINC000484900616    0.1200
     58 H58        -9.0505    3.1763   58.0433 H       1  ZINC000484900616    0.1200
@<TRIPOS>BOND
     1     1     2    1
     2     1    32    1
     3     1    33    1
     4     1    34    1
     5     2     3    1
     6     2    35    1
     7     2    36    1
     8     3     4    1
     9     4     5    2
    10     4     6    1
    11     6    31    1
    12     6     7    2
    13     7     8    1
    14     7    37    1
    15     8     9    1
    16     9    10    1
    17     9    31    2
    18    10    11    1
    19    10    15    1
    20    10    12    1
    21    12    13    1
    22    12    38    1
    23    12    39    1
    24    13    14    1
    25    13    40    1
    26    13    41    1
    27    14    15    1
    28    14    42    1
    29    14    43    1
    30    15    16    1
    31    16    17    1
    32    16    44    1
    33    16    45    1
    34    17    18    2
    35    17    19   am
    36    19    20    1
    37    19    46    1
    38    20    21    1
    39    20    22    1
    40    20    23    1
    41    22    47    1
    42    22    48    1
    43    22    49    1
    44    23    30   ar
    45    23    24   ar
    46    24    25   ar
    47    24    50    1
    48    25    26   ar
    49    25    51    1
    50    26    27    1
    51    26    29   ar
    52    27    28    1
    53    27    52    1
    54    27    53    1
    55    28    54    1
    56    28    55    1
    57    28    56    1
    58    29    30   ar
    59    29    57    1
    60    30    58    1
@<TRIPOS>SUBSTRUCTURE
     1 ZINC000484900616        1 TEMP              0 ****  ****    0 ROOT


##########                                Name:    ZINC000919225759
##########                DOCK_Rotatable_Bonds:                   4
##########                         Heavy_Atoms:                  27
##########                    Molecular_Weight:             375.295
##########                DOCK_Rotatable_Bonds:                   4
##########                       Formal_Charge:                0.04
##########                     HBond_Acceptors:                  11
##########                        HBond_Donors:                   0
##########                         Heavy_Atoms:                  27
##########                          Grid_Score:          -31.319895
##########                     Grid_vdw_energy:          -31.506380
##########                      Grid_es_energy:            0.186486
##########           Internal_energy_repulsive:            6.577291

@<TRIPOS>MOLECULE
ZINC000919225759
 40 41 1 0 0
SMALL
USER_CHARGES


@<TRIPOS>ATOM
      1 C1        -14.0372   -3.3971   56.7264 C.3     1  ZINC000919225759   -0.1500
      2 C2        -13.1506   -2.9358   57.8544 C.ar    1  ZINC000919225759    0.0900
      3 C3        -11.7827   -2.7559   57.6406 C.ar    1  ZINC000919225759   -0.1200
      4 C4        -11.1994   -3.0170   56.3087 C.2     1  ZINC000919225759    0.5200
      5 O5        -10.8298   -4.1365   56.0164 O.2     1  ZINC000919225759   -0.4700
      6 O6        -11.0776   -2.0134   55.4184 O.3     1  ZINC000919225759   -0.3400
      7 C7        -10.6052   -2.3637   54.0908 C.3     1  ZINC000919225759    0.1400
      8 H8         -9.9146   -3.2042   54.1609 H       1  ZINC000919225759    0.1100
      9 C9        -11.7955   -2.7538   53.2123 C.3     1  ZINC000919225759   -0.1700
     10 C10        -9.8971   -1.1813   53.4813 C.ar    1  ZINC000919225759   -0.1000
     11 C11       -10.3483    0.1003   53.7349 C.ar    1  ZINC000919225759   -0.0400
     12 C12        -9.6987    1.1851   53.1756 C.ar    1  ZINC000919225759   -0.1100
     13 C13        -8.5979    0.9880   52.3635 C.ar    1  ZINC000919225759   -0.0500
     14 C14        -8.1460   -0.2939   52.1106 C.ar    1  ZINC000919225759   -0.0400
     15 N15        -6.9674   -0.5050   51.2404 N.pl3   1  ZINC000919225759    0.0300
     16 O16        -6.3956    0.4507   50.7472 O.2     1  ZINC000919225759   -0.1500
     17 O17        -6.5693   -1.6343   51.0176 O.2     1  ZINC000919225759   -0.1500
     18 C18        -8.7928   -1.3782   52.6731 C.ar    1  ZINC000919225759   -0.0400
     19 C19       -10.9686   -2.3277   58.6912 C.ar    1  ZINC000919225759    0.0500
     20 C20       -11.5199   -2.0853   59.9320 C.ar    1  ZINC000919225759   -0.0600
     21 N21       -10.6586   -1.6308   61.0467 N.pl3   1  ZINC000919225759    0.0300
     22 O22        -9.4645   -1.4714   60.8677 O.2     1  ZINC000919225759   -0.1300
     23 O23       -11.1440   -1.4165   62.1431 O.2     1  ZINC000919225759   -0.1300
     24 C24       -12.8766   -2.2656   60.1371 C.ar    1  ZINC000919225759    0.0400
     25 C25       -13.6898   -2.6846   59.0992 C.ar    1  ZINC000919225759   -0.0500
     26 N26       -15.1399   -2.8742   59.3278 N.pl3   1  ZINC000919225759    0.0200
     27 O27       -15.5349   -3.3348   60.3839 O.2     1  ZINC000919225759   -0.1300
     28 O28       -15.9381   -2.5697   58.4596 O.2     1  ZINC000919225759   -0.1200
     29 H29       -14.3247   -2.5406   56.1168 H       1  ZINC000919225759    0.1200
     30 H30       -13.4971   -4.1164   56.1108 H       1  ZINC000919225759    0.1200
     31 H31       -14.9308   -3.8680   57.1360 H       1  ZINC000919225759    0.0900
     32 H32       -12.4861   -1.9134   53.1422 H       1  ZINC000919225759    0.0700
     33 H33       -11.4409   -3.0168   52.2157 H       1  ZINC000919225759    0.0900
     34 H34       -12.3077   -3.6090   53.6531 H       1  ZINC000919225759    0.0700
     35 H35       -11.2084    0.2542   54.3695 H       1  ZINC000919225759    0.1500
     36 H36       -10.0516    2.1865   53.3733 H       1  ZINC000919225759    0.1500
     37 H37        -8.0909    1.8354   51.9261 H       1  ZINC000919225759    0.1600
     38 H38        -8.4398   -2.3796   52.4756 H       1  ZINC000919225759    0.1600
     39 H39        -9.9096   -2.1869   58.5327 H       1  ZINC000919225759    0.1900
     40 H40       -13.3031   -2.0747   61.1108 H       1  ZINC000919225759    0.1900
@<TRIPOS>BOND
     1     1     2    1
     2     1    29    1
     3     1    30    1
     4     1    31    1
     5     2    25   ar
     6     2     3   ar
     7     3     4    1
     8     3    19   ar
     9     4     5    2
    10     4     6    1
    11     6     7    1
    12     7     8    1
    13     7     9    1
    14     7    10    1
    15     9    32    1
    16     9    33    1
    17     9    34    1
    18    10    18   ar
    19    10    11   ar
    20    11    12   ar
    21    11    35    1
    22    12    13   ar
    23    12    36    1
    24    13    14   ar
    25    13    37    1
    26    14    15    1
    27    14    18   ar
    28    15    16    2
    29    15    17    2
    30    18    38    1
    31    19    20   ar
    32    19    39    1
    33    20    21    1
    34    20    24   ar
    35    21    22    2
    36    21    23    2
    37    24    25   ar
    38    24    40    1
    39    25    26    1
    40    26    27    2
    41    26    28    2
@<TRIPOS>SUBSTRUCTURE
     1 ZINC000919225759        1 TEMP              0 ****  ****    0 ROOT


##########                                Name:    ZINC000350493047
##########                DOCK_Rotatable_Bonds:                   7
##########                         Heavy_Atoms:                  24
##########                    Molecular_Weight:             330.387
##########                DOCK_Rotatable_Bonds:                   7
##########                       Formal_Charge:          -0.0300002
##########                     HBond_Acceptors:                   7
##########                        HBond_Donors:                   3
##########                         Heavy_Atoms:                  24
##########                          Grid_Score:          -31.317204
##########                     Grid_vdw_energy:          -30.913956
##########                      Grid_es_energy:           -0.403248
##########           Internal_energy_repulsive:            5.895011

@<TRIPOS>MOLECULE
ZINC000350493047
 46 48 1 0 0
SMALL
USER_CHARGES


@<TRIPOS>ATOM
      1 C1         -0.8261    3.0293   51.0120 C.3     1  <0>        -0.1600
      2 C2         -1.7844    1.9466   50.5116 C.3     1  <0>         0.2600
      3 H3         -1.3454    0.9642   50.6859 H       1  <0>         0.1200
      4 N4         -2.0206    2.1284   49.0772 N.am    1  <0>        -0.7400
      5 C5         -1.2383    1.4965   48.1800 C.2     1  <0>         0.7100
      6 N6         -1.4565    1.6625   46.8604 N.am    1  <0>        -0.8600
      7 O7         -0.3354    0.7767   48.5609 O.2     1  <0>        -0.5900
      8 C8         -3.0921    2.0512   51.2533 C.2     1  <0>         0.1700
      9 N9         -3.5074    3.0770   51.9360 N.2     1  <0>        -0.3800
     10 O10        -4.5993    2.8547   52.4149 O.3     1  <0>         0.0900
     11 C11        -5.0010    1.6208   52.0717 C.2     1  <0>         0.2400
     12 C12        -6.2704    0.9689   52.4510 C.ar    1  <0>        -0.0800
     13 C13        -7.0351    1.4829   53.5009 C.ar    1  <0>        -0.0200
     14 C14        -8.2189    0.8718   53.8519 C.ar    1  <0>        -0.2200
     15 C15        -8.6523   -0.2545   53.1632 C.ar    1  <0>         0.1700
     16 O16        -9.8193   -0.8541   53.5124 O.3     1  <0>        -0.3000
     17 C17       -10.8379   -0.9230   52.5125 C.3     1  <0>         0.0800
     18 C18       -11.7597   -2.1086   52.8045 C.3     1  <0>        -0.1500
     19 C19       -12.8503   -2.1824   51.7340 C.3     1  <0>        -0.1200
     20 C20       -13.6654   -0.8877   51.7462 C.3     1  <0>        -0.1300
     21 C21       -12.7436    0.2981   51.4542 C.3     1  <0>        -0.1200
     22 C22       -11.6530    0.3719   52.5248 C.3     1  <0>        -0.1200
     23 C23        -7.8948   -0.7686   52.1181 C.ar    1  <0>        -0.1600
     24 C24        -6.7127   -0.1599   51.7572 C.ar    1  <0>        -0.0300
     25 N25        -4.0409    1.1047   51.3237 N.2     1  <0>        -0.4700
     26 H26        -1.2651    4.0116   50.8377 H       1  <0>         0.0600
     27 H27        -0.6504    2.8940   52.0791 H       1  <0>         0.0700
     28 H28         0.1196    2.9536   50.4755 H       1  <0>         0.0800
     29 H29        -2.7401    2.7035   48.7733 H       1  <0>         0.4000
     30 H30        -0.8941    1.2068   46.2148 H       1  <0>         0.4000
     31 H31        -2.1760    2.2376   46.5564 H       1  <0>         0.4200
     32 H32        -6.6986    2.3579   54.0371 H       1  <0>         0.1400
     33 H33        -8.8107    1.2686   54.6635 H       1  <0>         0.1400
     34 H34       -10.3775   -1.0532   51.5332 H       1  <0>         0.0800
     35 H35       -11.1790   -3.0311   52.7958 H       1  <0>         0.0700
     36 H36       -12.2202   -1.9784   53.7839 H       1  <0>         0.0800
     37 H37       -12.3899   -2.3126   50.7546 H       1  <0>         0.0600
     38 H38       -13.5071   -3.0271   51.9419 H       1  <0>         0.0700
     39 H39       -14.4424   -0.9402   50.9835 H       1  <0>         0.0700
     40 H40       -14.1259   -0.7574   52.7255 H       1  <0>         0.0700
     41 H41       -12.2831    0.1678   50.4749 H       1  <0>         0.0700
     42 H42       -13.3243    1.2204   51.4630 H       1  <0>         0.0700
     43 H43       -12.1134    0.5021   53.5042 H       1  <0>         0.0800
     44 H44       -10.9963    1.2166   52.3168 H       1  <0>         0.0700
     45 H45        -8.2352   -1.6441   51.5850 H       1  <0>         0.1400
     46 H46        -6.1246   -0.5599   50.9444 H       1  <0>         0.1400
@<TRIPOS>BOND
     1     1     2    1
     2     1    26    1
     3     1    27    1
     4     1    28    1
     5     2     3    1
     6     2     4    1
     7     2     8    1
     8     4     5   am
     9     4    29    1
    10     5     6   am
    11     5     7    2
    12     6    30    1
    13     6    31    1
    14     8    25    1
    15     8     9    2
    16     9    10    1
    17    10    11    1
    18    11    12    1
    19    11    25    2
    20    12    24   ar
    21    12    13   ar
    22    13    14   ar
    23    13    32    1
    24    14    15   ar
    25    14    33    1
    26    15    16    1
    27    15    23   ar
    28    16    17    1
    29    17    22    1
    30    17    18    1
    31    17    34    1
    32    18    19    1
    33    18    35    1
    34    18    36    1
    35    19    20    1
    36    19    37    1
    37    19    38    1
    38    20    21    1
    39    20    39    1
    40    20    40    1
    41    21    22    1
    42    21    41    1
    43    21    42    1
    44    22    43    1
    45    22    44    1
    46    23    24   ar
    47    23    45    1
    48    24    46    1
@<TRIPOS>SUBSTRUCTURE
     1 <0>         1 TEMP              0 ****  ****    0 ROOT


##########                                Name:    ZINC000863216249
##########                DOCK_Rotatable_Bonds:                   5
##########                         Heavy_Atoms:                  23
##########                    Molecular_Weight:             396.351
##########                DOCK_Rotatable_Bonds:                   5
##########                       Formal_Charge:         -0.00999944
##########                     HBond_Acceptors:                   5
##########                        HBond_Donors:                   1
##########                         Heavy_Atoms:                  23
##########                          Grid_Score:          -31.311323
##########                     Grid_vdw_energy:          -31.392199
##########                      Grid_es_energy:            0.080875
##########           Internal_energy_repulsive:           24.966528

@<TRIPOS>MOLECULE
ZINC000863216249
 45 48 1 0 0
SMALL
USER_CHARGES


@<TRIPOS>ATOM
      1 S1         -1.5288    4.0277   51.2339 S.2     1  ZINC000863216249   -0.5900
      2 C2         -2.7998    2.8876   51.3587 C.2     1  ZINC000863216249    0.5600
      3 N3         -2.7225    1.7168   50.6955 N.am    1  ZINC000863216249   -0.6800
      4 C4         -1.5536    1.4224   49.8630 C.3     1  ZINC000863216249    0.1200
      5 C5         -1.7003    2.1242   48.5114 C.3     1  ZINC000863216249    0.0400
      6 N6         -0.4318    2.0393   47.7754 N.3     1  ZINC000863216249   -0.5300
      7 C7         -0.4928    2.8164   46.5289 C.3     1  ZINC000863216249    0.0000
      8 C8          0.8651    2.7496   45.8251 C.3     1  ZINC000863216249    0.0600
      9 O9          1.2097    1.3810   45.5937 O.3     1  ZINC000863216249   -0.3800
     10 C10         1.2788    0.5951   46.7865 C.3     1  ZINC000863216249    0.0600
     11 C11        -0.0750    0.6401   47.5000 C.3     1  ZINC000863216249    0.0200
     12 N12        -3.8753    3.1585   52.1246 N.am    1  ZINC000863216249   -0.5100
     13 C13        -4.0724    4.3938   52.8913 C.3     1  ZINC000863216249    0.1200
     14 C14        -5.4284    4.2170   53.5818 C.3     1  ZINC000863216249   -0.1100
     15 C15        -5.6851    4.7520   54.9852 C.3     1  ZINC000863216249   -0.1500
     16 C16        -6.3821    5.3888   53.7796 C.3     1  ZINC000863216249   -0.1500
     17 C17        -5.9190    2.8597   53.1486 C.ar    1  ZINC000863216249   -0.0700
     18 C18        -7.0751    2.1667   53.4515 C.ar    1  ZINC000863216249   -0.0800
     19 C19        -7.2946    0.9114   52.9158 C.ar    1  ZINC000863216249   -0.1000
     20 C20        -6.3526    0.3484   52.0735 C.ar    1  ZINC000863216249   -0.0700
     21 Br21       -6.6509   -1.3683   51.3388 Br      1  ZINC000863216249   -0.0400
     22 C22        -5.1964    1.0361   51.7677 C.ar    1  ZINC000863216249   -0.0900
     23 C23        -4.9700    2.3059   52.3004 C.ar    1  ZINC000863216249    0.1400
     24 H24        -3.4410    1.0693   50.7693 H       1  ZINC000863216249    0.4000
     25 H25        -0.6528    1.7796   50.3620 H       1  ZINC000863216249    0.0900
     26 H26        -1.4802    0.3460   49.7074 H       1  ZINC000863216249    0.1000
     27 H27        -2.4882    1.6401   47.9343 H       1  ZINC000863216249    0.0900
     28 H28        -1.9581    3.1710   48.6717 H       1  ZINC000863216249    0.0400
     29 H29        -1.2612    2.3997   45.8776 H       1  ZINC000863216249    0.0500
     30 H30        -0.7332    3.8545   46.7585 H       1  ZINC000863216249    0.1000
     31 H31         0.8078    3.2766   44.8728 H       1  ZINC000863216249    0.1000
     32 H32         1.6243    3.2148   46.4540 H       1  ZINC000863216249    0.0600
     33 H33         1.5207   -0.4361   46.5294 H       1  ZINC000863216249    0.1000
     34 H34         2.0499    0.9976   47.4434 H       1  ZINC000863216249    0.0600
     35 H35        -0.0103    0.0894   48.4384 H       1  ZINC000863216249    0.0900
     36 H36        -0.8366    0.1886   46.8643 H       1  ZINC000863216249    0.0500
     37 H37        -3.2818    4.5103   53.6326 H       1  ZINC000863216249    0.0900
     38 H38        -4.0967    5.2548   52.2233 H       1  ZINC000863216249    0.0900
     39 H39        -6.2925    4.1417   55.6536 H       1  ZINC000863216249    0.1100
     40 H40        -4.8856    5.3191   55.4621 H       1  ZINC000863216249    0.1100
     41 H41        -6.0410    6.3746   53.4635 H       1  ZINC000863216249    0.1100
     42 H42        -7.4478    5.1972   53.6550 H       1  ZINC000863216249    0.1100
     43 H43        -7.8096    2.6070   54.1095 H       1  ZINC000863216249    0.1400
     44 H44        -8.1990    0.3716   53.1544 H       1  ZINC000863216249    0.1400
     45 H45        -4.4645    0.5911   51.1097 H       1  ZINC000863216249    0.1900
@<TRIPOS>BOND
     1     1     2    2
     2     2     3   am
     3     2    12   am
     4     3     4    1
     5     3    24    1
     6     4     5    1
     7     4    25    1
     8     4    26    1
     9     5     6    1
    10     5    27    1
    11     5    28    1
    12     6    11    1
    13     6     7    1
    14     7     8    1
    15     7    29    1
    16     7    30    1
    17     8     9    1
    18     8    31    1
    19     8    32    1
    20     9    10    1
    21    10    11    1
    22    10    33    1
    23    10    34    1
    24    11    35    1
    25    11    36    1
    26    12    23    1
    27    12    13    1
    28    13    14    1
    29    13    37    1
    30    13    38    1
    31    14    16    1
    32    14    15    1
    33    14    17    1
    34    15    16    1
    35    15    39    1
    36    15    40    1
    37    16    41    1
    38    16    42    1
    39    17    23   ar
    40    17    18   ar
    41    18    19   ar
    42    18    43    1
    43    19    20   ar
    44    19    44    1
    45    20    21    1
    46    20    22   ar
    47    22    23   ar
    48    22    45    1
@<TRIPOS>SUBSTRUCTURE
     1 ZINC000863216249        1 TEMP              0 ****  ****    0 ROOT


##########                                Name:    ZINC000918875053
##########                DOCK_Rotatable_Bonds:                   6
##########                         Heavy_Atoms:                  26
##########                    Molecular_Weight:             359.357
##########                DOCK_Rotatable_Bonds:                   6
##########                       Formal_Charge:           0.0200003
##########                     HBond_Acceptors:                   8
##########                        HBond_Donors:                   0
##########                         Heavy_Atoms:                  26
##########                          Grid_Score:          -31.298885
##########                     Grid_vdw_energy:          -31.356955
##########                      Grid_es_energy:            0.058070
##########           Internal_energy_repulsive:            6.153862

@<TRIPOS>MOLECULE
ZINC000918875053
 44 47 1 0 0
SMALL
USER_CHARGES


@<TRIPOS>ATOM
      1 C1        -13.8427   -5.3674   56.5361 C.3     1  ZINC000918875053   -0.1700
      2 C2        -12.8381   -4.2765   56.1597 C.3     1  ZINC000918875053    0.1900
      3 H3        -12.2689   -4.5927   55.2855 H       1  ZINC000918875053    0.1400
      4 O4        -13.5493   -3.0476   55.8558 O.3     1  ZINC000918875053   -0.3400
      5 C5        -14.0052   -2.9017   54.6017 C.2     1  ZINC000918875053    0.4800
      6 O6        -15.1944   -2.8551   54.3929 O.2     1  ZINC000918875053   -0.4900
      7 C7        -13.0340   -2.7962   53.4543 C.3     1  ZINC000918875053   -0.0900
      8 H8        -12.7963   -3.7822   53.0552 H       1  ZINC000918875053    0.1400
      9 C9        -13.5851   -1.8690   52.3463 C.3     1  ZINC000918875053   -0.1400
     10 C10       -12.3650   -1.1333   51.8375 C.2     1  ZINC000918875053    0.5300
     11 O11       -12.3083   -0.5225   50.7911 O.2     1  ZINC000918875053   -0.5000
     12 N12       -11.3531   -1.2548   52.7138 N.am    1  ZINC000918875053   -0.5800
     13 C13       -10.0814   -0.6962   52.5347 C.ar    1  ZINC000918875053    0.1000
     14 C14        -9.0084   -1.5058   52.1896 C.ar    1  ZINC000918875053   -0.0800
     15 C15        -7.7548   -0.9519   52.0131 C.ar    1  ZINC000918875053   -0.1200
     16 C16        -7.5674    0.4075   52.1801 C.ar    1  ZINC000918875053   -0.0800
     17 C17        -8.6336    1.2188   52.5240 C.ar    1  ZINC000918875053   -0.1500
     18 C18        -9.8919    0.6723   52.6966 C.ar    1  ZINC000918875053    0.1100
     19 F19       -10.9335    1.4645   53.0321 F       1  ZINC000918875053   -0.1300
     20 C20       -11.7515   -2.0491   53.8825 C.3     1  ZINC000918875053    0.1200
     21 C21       -11.8974   -4.0403   57.3131 C.2     1  ZINC000918875053    0.1800
     22 N22       -11.7242   -2.9138   57.9616 N.2     1  ZINC000918875053   -0.4600
     23 C23       -10.7967   -3.1750   58.8999 C.2     1  ZINC000918875053    0.2100
     24 C24       -10.2496   -2.1989   59.9092 C.3     1  ZINC000918875053   -0.0900
     25 C25        -8.9557   -1.4643   59.5523 C.3     1  ZINC000918875053   -0.1600
     26 C26       -10.2884   -0.7127   59.5477 C.3     1  ZINC000918875053   -0.1500
     27 N27       -10.4593   -4.4238   58.7764 N.2     1  ZINC000918875053   -0.3700
     28 O28       -11.0844   -4.9403   57.8743 O.3     1  ZINC000918875053    0.1000
     29 H29       -14.5231   -5.5383   55.7019 H       1  ZINC000918875053    0.0900
     30 H30       -13.3088   -6.2898   56.7644 H       1  ZINC000918875053    0.0900
     31 H31       -14.4118   -5.0512   57.4103 H       1  ZINC000918875053    0.0800
     32 H32       -14.0372   -2.4564   51.5472 H       1  ZINC000918875053    0.1300
     33 H33       -14.3083   -1.1669   52.7611 H       1  ZINC000918875053    0.1100
     34 H34        -9.1530   -2.5682   52.0594 H       1  ZINC000918875053    0.1400
     35 H35        -6.9199   -1.5822   51.7445 H       1  ZINC000918875053    0.1400
     36 H36        -6.5863    0.8371   52.0420 H       1  ZINC000918875053    0.1400
     37 H37        -8.4840    2.2804   52.6538 H       1  ZINC000918875053    0.1400
     38 H38       -11.9613   -1.3954   54.7292 H       1  ZINC000918875053    0.1000
     39 H39       -10.9672   -2.7609   54.1400 H       1  ZINC000918875053    0.1000
     40 H40       -10.4046   -2.4669   60.9543 H       1  ZINC000918875053    0.1400
     41 H41        -8.2592   -1.2490   60.3625 H       1  ZINC000918875053    0.1100
     42 H42        -8.5004   -1.6871   58.5873 H       1  ZINC000918875053    0.1000
     43 H43       -10.7098   -0.4410   58.5798 H       1  ZINC000918875053    0.1000
     44 H44       -10.4686   -0.0030   60.3551 H       1  ZINC000918875053    0.1100
@<TRIPOS>BOND
     1     1     2    1
     2     1    29    1
     3     1    30    1
     4     1    31    1
     5     2     3    1
     6     2     4    1
     7     2    21    1
     8     4     5    1
     9     5     6    2
    10     5     7    1
    11     7     8    1
    12     7    20    1
    13     7     9    1
    14     9    10    1
    15     9    32    1
    16     9    33    1
    17    10    11    2
    18    10    12   am
    19    12    13    1
    20    12    20    1
    21    13    18   ar
    22    13    14   ar
    23    14    15   ar
    24    14    34    1
    25    15    16   ar
    26    15    35    1
    27    16    17   ar
    28    16    36    1
    29    17    18   ar
    30    17    37    1
    31    18    19    1
    32    20    38    1
    33    20    39    1
    34    21    28    1
    35    21    22    2
    36    22    23    1
    37    23    24    1
    38    23    27    2
    39    24    26    1
    40    24    25    1
    41    24    40    1
    42    25    26    1
    43    25    41    1
    44    25    42    1
    45    26    43    1
    46    26    44    1
    47    27    28    1
@<TRIPOS>SUBSTRUCTURE
     1 ZINC000918875053        1 TEMP              0 ****  ****    0 ROOT


##########                                Name:    ZINC001570985666
##########                DOCK_Rotatable_Bonds:                   7
##########                         Heavy_Atoms:                  26
##########                    Molecular_Weight:             357.415
##########                DOCK_Rotatable_Bonds:                   7
##########                       Formal_Charge:          -0.0100001
##########                     HBond_Acceptors:                   9
##########                        HBond_Donors:                   3
##########                         Heavy_Atoms:                  26
##########                          Grid_Score:          -31.290283
##########                     Grid_vdw_energy:          -31.702755
##########                      Grid_es_energy:            0.412471
##########           Internal_energy_repulsive:           10.161422

@<TRIPOS>MOLECULE
ZINC001570985666
 49 52 1 0 0
SMALL
USER_CHARGES


@<TRIPOS>ATOM
      1 C1         -0.5163    2.3438   48.1183 C.3     1  ZINC001570985666   -0.1600
      2 C2         -0.3171    1.9308   49.5781 C.3     1  ZINC001570985666    0.1300
      3 H3         -0.7140    0.9282   49.7369 H       1  ZINC001570985666    0.0800
      4 C4         -1.0326    2.9323   50.5091 C.3     1  ZINC001570985666    0.1400
      5 H5         -1.1636    3.8940   50.0132 H       1  ZINC001570985666    0.1100
      6 N6         -2.3237    2.3985   50.9500 N.am    1  ZINC001570985666   -0.7200
      7 C7         -3.1260    3.1410   51.7383 C.2     1  ZINC001570985666    0.6000
      8 O8         -2.7789    4.2547   52.0823 O.2     1  ZINC001570985666   -0.5300
      9 C9         -4.4235    2.6036   52.1831 C.2     1  ZINC001570985666   -0.2300
     10 C10        -5.3399    3.2383   52.9936 C.2     1  ZINC001570985666    0.0700
     11 N11        -6.3936    2.4153   53.1646 N.pl3   1  ZINC001570985666   -0.5200
     12 C12        -6.1745    1.2493   52.4735 C.2     1  ZINC001570985666    0.0600
     13 C13        -7.0981    0.0944   52.4108 C.2     1  ZINC001570985666    0.2500
     14 N14        -8.2800   -0.0024   52.9898 N.2     1  ZINC001570985666   -0.3100
     15 N15        -8.7687   -1.1583   52.6966 N.pl3   1  ZINC001570985666   -0.2200
     16 N16        -7.9360   -1.7969   51.9512 N.2     1  ZINC001570985666   -0.0400
     17 N17        -6.8997   -1.0561   51.7495 N.2     1  ZINC001570985666   -0.2600
     18 C18        -4.9706    1.3365   51.8534 C.2     1  ZINC001570985666   -0.0600
     19 C19        -0.0501    3.0595   51.7032 C.3     1  ZINC001570985666   -0.1500
     20 C20         1.3212    2.9538   50.9903 C.3     1  ZINC001570985666    0.1000
     21 N21         1.1135    1.9615   49.9156 N.am    1  ZINC001570985666   -0.6200
     22 C22         2.0758    1.2126   49.3414 C.2     1  ZINC001570985666    0.5300
     23 O23         1.7894    0.4269   48.4631 O.2     1  ZINC001570985666   -0.5300
     24 C24         3.5075    1.3518   49.7905 C.3     1  ZINC001570985666   -0.1300
     25 C25         3.7600    0.4271   50.9830 C.3     1  ZINC001570985666   -0.1000
     26 C26         4.1711   -0.9991   50.5805 C.3     1  ZINC001570985666   -0.1300
     27 C27         5.1742   -0.9542   51.7453 C.3     1  ZINC001570985666   -0.1400
     28 C28         5.1646    0.5758   51.5914 C.3     1  ZINC001570985666   -0.1400
     29 H29        -0.0038    1.6356   47.4672 H       1  ZINC001570985666    0.0700
     30 H30        -1.5807    2.3483   47.8840 H       1  ZINC001570985666    0.0700
     31 H31        -0.1061    3.3418   47.9639 H       1  ZINC001570985666    0.0600
     32 H32        -2.6011    1.5108   50.6746 H       1  ZINC001570985666    0.4000
     33 H33        -5.2320    4.2250   53.4192 H       1  ZINC001570985666    0.1800
     34 H34        -7.1821    2.6153   53.6928 H       1  ZINC001570985666    0.4300
     35 H35        -9.6294   -1.4946   52.9917 H       1  ZINC001570985666    0.4800
     36 H36        -4.5125    0.5814   51.2318 H       1  ZINC001570985666    0.1600
     37 H37        -0.1598    4.0244   52.1982 H       1  ZINC001570985666    0.0900
     38 H38        -0.1868    2.2415   52.4105 H       1  ZINC001570985666    0.0800
     39 H39         1.6046    3.9180   50.5684 H       1  ZINC001570985666    0.0800
     40 H40         2.0842    2.6039   51.6856 H       1  ZINC001570985666    0.0800
     41 H41         4.1733    1.0790   48.9719 H       1  ZINC001570985666    0.0900
     42 H42         3.6972    2.3840   50.0848 H       1  ZINC001570985666    0.0900
     43 H43         2.9587    0.4600   51.7213 H       1  ZINC001570985666    0.1000
     44 H44         3.3791   -1.7360   50.7144 H       1  ZINC001570985666    0.0700
     45 H45         4.6432   -1.0569   49.5997 H       1  ZINC001570985666    0.0800
     46 H46         4.7596   -1.3005   52.6920 H       1  ZINC001570985666    0.0800
     47 H47         6.1360   -1.4106   51.5110 H       1  ZINC001570985666    0.0700
     48 H48         5.9083    0.9485   50.8870 H       1  ZINC001570985666    0.0800
     49 H49         5.1746    1.1102   52.5413 H       1  ZINC001570985666    0.0700
@<TRIPOS>BOND
     1     1     2    1
     2     1    29    1
     3     1    30    1
     4     1    31    1
     5     2     3    1
     6     2    21    1
     7     2     4    1
     8     4     5    1
     9     4     6    1
    10     4    19    1
    11     6     7   am
    12     6    32    1
    13     7     8    2
    14     7     9    1
    15     9    18    1
    16     9    10    2
    17    10    11    1
    18    10    33    1
    19    11    12    1
    20    11    34    1
    21    12    13    1
    22    12    18    2
    23    13    17    1
    24    13    14    2
    25    14    15    1
    26    15    16    1
    27    15    35    1
    28    16    17    2
    29    18    36    1
    30    19    20    1
    31    19    37    1
    32    19    38    1
    33    20    21    1
    34    20    39    1
    35    20    40    1
    36    21    22   am
    37    22    23    2
    38    22    24    1
    39    24    25    1
    40    24    41    1
    41    24    42    1
    42    25    28    1
    43    25    26    1
    44    25    43    1
    45    26    27    1
    46    26    44    1
    47    26    45    1
    48    27    28    1
    49    27    46    1
    50    27    47    1
    51    28    48    1
    52    28    49    1
@<TRIPOS>SUBSTRUCTURE
     1 ZINC001570985666        1 TEMP              0 ****  ****    0 ROOT


##########                                Name:    ZINC000894043060
##########                DOCK_Rotatable_Bonds:                  11
##########                         Heavy_Atoms:                  26
##########                    Molecular_Weight:             396.812
##########                DOCK_Rotatable_Bonds:                  11
##########                       Formal_Charge:          -0.0199999
##########                     HBond_Acceptors:                   9
##########                        HBond_Donors:                   2
##########                         Heavy_Atoms:                  26
##########                          Grid_Score:          -31.288370
##########                     Grid_vdw_energy:          -30.217669
##########                      Grid_es_energy:           -1.070701
##########           Internal_energy_repulsive:           11.848736

@<TRIPOS>MOLECULE
ZINC000894043060
 47 47 1 0 0
SMALL
USER_CHARGES


@<TRIPOS>ATOM
      1 C1        -13.2160    1.4323   49.7915 C.3     1  ZINC000894043060   -0.1700
      2 C2        -13.6963    0.0431   49.3667 C.3     1  ZINC000894043060    0.1000
      3 H3        -14.7166   -0.1116   49.7175 H       1  ZINC000894043060    0.1100
      4 N4        -12.8199   -0.9760   49.9494 N.am    1  ZINC000894043060   -0.7300
      5 C5        -13.0791   -1.4651   51.1781 C.2     1  ZINC000894043060    0.5200
      6 O6        -14.0371   -1.0605   51.8022 O.2     1  ZINC000894043060   -0.5200
      7 C7        -12.1785   -2.5147   51.7767 C.3     1  ZINC000894043060   -0.1400
      8 C8        -11.6528   -2.0254   53.1278 C.3     1  ZINC000894043060   -0.0200
      9 C9        -11.2660   -3.2283   53.9905 C.3     1  ZINC000894043060   -0.1400
     10 C10       -12.5021   -3.8058   54.6304 C.2     1  ZINC000894043060    0.5200
     11 O11       -13.0109   -4.8069   54.1723 O.2     1  ZINC000894043060   -0.5200
     12 N12       -13.0422   -3.2098   55.7119 N.am    1  ZINC000894043060   -0.7300
     13 C13       -14.2429   -3.7721   56.3351 C.3     1  ZINC000894043060    0.1000
     14 H14       -14.9338   -4.1027   55.5596 H       1  ZINC000894043060    0.1200
     15 C15       -13.8521   -4.9637   57.2116 C.3     1  ZINC000894043060   -0.1700
     16 C16       -14.9177   -2.7039   57.1978 C.3     1  ZINC000894043060    0.2600
     17 F17       -14.0308   -2.2796   58.1932 F       1  ZINC000894043060   -0.1900
     18 F18       -15.2750   -1.6144   56.3964 F       1  ZINC000894043060   -0.2000
     19 C19       -10.4432   -1.1534   52.9102 C.ar    1  ZINC000894043060   -0.0600
     20 C20       -10.4816    0.1823   53.2646 C.ar    1  ZINC000894043060   -0.1200
     21 C21        -9.3725    0.9826   53.0653 C.ar    1  ZINC000894043060   -0.1200
     22 C22        -8.2236    0.4467   52.5110 C.ar    1  ZINC000894043060   -0.0400
     23 Cl23       -6.8300    1.4511   52.2609 Cl      1  ZINC000894043060   -0.0800
     24 C24        -8.1859   -0.8902   52.1566 C.ar    1  ZINC000894043060   -0.1100
     25 C25        -9.2937   -1.6908   52.3616 C.ar    1  ZINC000894043060   -0.0400
     26 C26       -13.6598   -0.0646   47.8409 C.3     1  ZINC000894043060    0.2600
     27 F27       -14.1368   -1.3205   47.4506 F       1  ZINC000894043060   -0.2000
     28 F28       -14.4652    0.9342   47.2835 F       1  ZINC000894043060   -0.1900
     29 H29       -12.1957    1.5870   49.4407 H       1  ZINC000894043060    0.0600
     30 H30       -13.8682    2.1905   49.3580 H       1  ZINC000894043060    0.0800
     31 H31       -13.2421    1.5091   50.8785 H       1  ZINC000894043060    0.0800
     32 H32       -12.0529   -1.2986   49.4507 H       1  ZINC000894043060    0.4000
     33 H33       -12.7404   -3.4378   51.9183 H       1  ZINC000894043060    0.1000
     34 H34       -11.3395   -2.6992   51.1058 H       1  ZINC000894043060    0.1000
     35 H35       -12.4290   -1.4505   53.6330 H       1  ZINC000894043060    0.1000
     36 H36       -10.7923   -3.9859   53.3661 H       1  ZINC000894043060    0.1000
     37 H37       -10.5699   -2.9101   54.7665 H       1  ZINC000894043060    0.1000
     38 H38       -12.6359   -2.4084   56.0776 H       1  ZINC000894043060    0.4000
     39 H39       -13.1611   -4.6331   57.9871 H       1  ZINC000894043060    0.0700
     40 H40       -14.7454   -5.3821   57.6753 H       1  ZINC000894043060    0.0800
     41 H41       -13.3713   -5.7247   56.5970 H       1  ZINC000894043060    0.0700
     42 H42       -15.8109   -3.1223   57.6616 H       1  ZINC000894043060    0.1200
     43 H43       -11.3785    0.6006   53.6969 H       1  ZINC000894043060    0.1200
     44 H44        -9.4027    2.0261   53.3418 H       1  ZINC000894043060    0.1300
     45 H45        -7.2894   -1.3089   51.7236 H       1  ZINC000894043060    0.1300
     46 H46        -9.2642   -2.7344   52.0853 H       1  ZINC000894043060    0.1300
     47 H47       -12.6344    0.0589   47.4924 H       1  ZINC000894043060    0.1100
@<TRIPOS>BOND
     1     1     2    1
     2     1    29    1
     3     1    30    1
     4     1    31    1
     5     2     3    1
     6     2     4    1
     7     2    26    1
     8     4     5   am
     9     4    32    1
    10     5     6    2
    11     5     7    1
    12     7     8    1
    13     7    33    1
    14     7    34    1
    15     8     9    1
    16     8    19    1
    17     8    35    1
    18     9    10    1
    19     9    36    1
    20     9    37    1
    21    10    11    2
    22    10    12   am
    23    12    13    1
    24    12    38    1
    25    13    14    1
    26    13    15    1
    27    13    16    1
    28    15    39    1
    29    15    40    1
    30    15    41    1
    31    16    17    1
    32    16    18    1
    33    16    42    1
    34    19    25   ar
    35    19    20   ar
    36    20    21   ar
    37    20    43    1
    38    21    22   ar
    39    21    44    1
    40    22    23    1
    41    22    24   ar
    42    24    25   ar
    43    24    45    1
    44    25    46    1
    45    26    27    1
    46    26    28    1
    47    26    47    1
@<TRIPOS>SUBSTRUCTURE
     1 ZINC000894043060        1 TEMP              0 ****  ****    0 ROOT


##########                                Name:    ZINC000163855860
##########                DOCK_Rotatable_Bonds:                   6
##########                         Heavy_Atoms:                  28
##########                    Molecular_Weight:             398.483
##########                DOCK_Rotatable_Bonds:                   6
##########                       Formal_Charge:          -0.0100004
##########                     HBond_Acceptors:                   7
##########                        HBond_Donors:                   1
##########                         Heavy_Atoms:                  28
##########                          Grid_Score:          -31.264248
##########                     Grid_vdw_energy:          -29.015957
##########                      Grid_es_energy:           -2.248290
##########           Internal_energy_repulsive:           13.991171

@<TRIPOS>MOLECULE
ZINC000163855860
 50 53 1 0 0
SMALL
USER_CHARGES


@<TRIPOS>ATOM
      1 C1        -11.2365   -2.8959   56.3227 C.3     1  ZINC000163855860   -0.1300
      2 C2        -12.6565   -2.8858   55.8181 C.ar    1  ZINC000163855860   -0.0600
      3 C3        -13.7097   -2.7451   56.7080 C.ar    1  ZINC000163855860    0.1400
      4 N4        -13.4553   -2.6116   58.0777 N.am    1  ZINC000163855860   -0.6700
      5 C5        -13.3721   -1.3856   58.6314 C.2     1  ZINC000163855860    0.5100
      6 O6        -13.5178   -0.3981   57.9426 O.2     1  ZINC000163855860   -0.5100
      7 C7        -13.0982   -1.2419   60.1063 C.3     1  ZINC000163855860   -0.1300
      8 C8        -14.3302   -0.6562   60.7991 C.3     1  ZINC000163855860   -0.1100
      9 H9        -14.6291    0.2829   60.3335 H       1  ZINC000163855860    0.1100
     10 C10       -15.4979   -1.6690   60.7948 C.3     1  ZINC000163855860    0.0600
     11 O11       -16.1803   -1.4427   62.0635 O.3     1  ZINC000163855860   -0.3500
     12 C12       -15.3009   -1.0309   62.9879 C.2     1  ZINC000163855860    0.4800
     13 O13       -15.4646   -1.1018   64.1828 O.2     1  ZINC000163855860   -0.4500
     14 C14       -14.0724   -0.4637   62.3101 C.3     1  ZINC000163855860   -0.1800
     15 C15       -15.0182   -2.7308   56.2396 C.ar    1  ZINC000163855860   -0.1100
     16 C16       -15.2747   -2.8614   54.8878 C.ar    1  ZINC000163855860   -0.1100
     17 C17       -14.2331   -3.0068   53.9938 C.ar    1  ZINC000163855860   -0.1000
     18 C18       -12.9156   -3.0229   54.4543 C.ar    1  ZINC000163855860   -0.1100
     19 C19       -11.7978   -3.1780   53.4988 C.2     1  ZINC000163855860    0.5700
     20 O20       -11.3126   -4.2753   53.3041 O.2     1  ZINC000163855860   -0.5300
     21 N21       -11.3171   -2.1028   52.8437 N.am    1  ZINC000163855860   -0.6100
     22 C22       -11.8897   -0.7663   53.0645 C.3     1  ZINC000163855860    0.1200
     23 C23       -10.8121    0.1203   53.7082 C.3     1  ZINC000163855860   -0.0600
     24 C24        -9.5065   -0.0713   52.9659 C.2     1  ZINC000163855860   -0.1700
     25 C25        -9.2200   -1.1102   52.1588 C.2     1  ZINC000163855860   -0.1300
     26 C26        -7.9452   -1.0557   51.6042 C.2     1  ZINC000163855860   -0.1200
     27 C27        -7.2140    0.0007   51.9454 C.2     1  ZINC000163855860   -0.2100
     28 S28        -8.1346    1.0276   53.0342 S.3     1  ZINC000163855860    0.1100
     29 C29       -10.2108   -2.2360   51.8854 C.3     1  ZINC000163855860    0.1700
     30 H30       -10.9094   -3.9257   56.4666 H       1  ZINC000163855860    0.0700
     31 H31       -10.5888   -2.4074   55.5948 H       1  ZINC000163855860    0.0900
     32 H32       -11.1843   -2.3620   57.2715 H       1  ZINC000163855860    0.0700
     33 H33       -13.3388   -3.4015   58.6287 H       1  ZINC000163855860    0.4100
     34 H34       -12.2474   -0.5769   60.2547 H       1  ZINC000163855860    0.1100
     35 H35       -12.8731   -2.2201   60.5310 H       1  ZINC000163855860    0.1100
     36 H36       -15.1168   -2.6890   60.7441 H       1  ZINC000163855860    0.0800
     37 H37       -16.1705   -1.4711   59.9603 H       1  ZINC000163855860    0.1200
     38 H38       -13.9645    0.5952   62.5447 H       1  ZINC000163855860    0.1200
     39 H39       -13.1824   -1.0136   62.6162 H       1  ZINC000163855860    0.1200
     40 H40       -15.8373   -2.6170   56.9342 H       1  ZINC000163855860    0.1500
     41 H41       -16.2935   -2.8492   54.5297 H       1  ZINC000163855860    0.1300
     42 H42       -14.4377   -3.1086   52.9383 H       1  ZINC000163855860    0.1300
     43 H43       -12.1975   -0.3378   52.1107 H       1  ZINC000163855860    0.0800
     44 H44       -12.7500   -0.8420   53.7295 H       1  ZINC000163855860    0.1000
     45 H45       -10.6820   -0.1613   54.7531 H       1  ZINC000163855860    0.0900
     46 H46       -11.1159    1.1653   53.6474 H       1  ZINC000163855860    0.0900
     47 H47        -7.5738   -1.8219   50.9399 H       1  ZINC000163855860    0.1400
     48 H48        -6.2082    0.1979   51.6050 H       1  ZINC000163855860    0.1700
     49 H49        -9.7203   -3.2002   52.0194 H       1  ZINC000163855860    0.1000
     50 H50       -10.5921   -2.1544   50.8675 H       1  ZINC000163855860    0.0900
@<TRIPOS>BOND
     1     1     2    1
     2     1    30    1
     3     1    31    1
     4     1    32    1
     5     2    18   ar
     6     2     3   ar
     7     3     4    1
     8     3    15   ar
     9     4     5   am
    10     4    33    1
    11     5     6    2
    12     5     7    1
    13     7     8    1
    14     7    34    1
    15     7    35    1
    16     8     9    1
    17     8    14    1
    18     8    10    1
    19    10    11    1
    20    10    36    1
    21    10    37    1
    22    11    12    1
    23    12    13    2
    24    12    14    1
    25    14    38    1
    26    14    39    1
    27    15    16   ar
    28    15    40    1
    29    16    17   ar
    30    16    41    1
    31    17    18   ar
    32    17    42    1
    33    18    19    1
    34    19    20    2
    35    19    21   am
    36    21    29    1
    37    21    22    1
    38    22    23    1
    39    22    43    1
    40    22    44    1
    41    23    24    1
    42    23    45    1
    43    23    46    1
    44    24    28    1
    45    24    25    2
    46    25    26    1
    47    25    29    1
    48    26    27    2
    49    26    47    1
    50    27    28    1
    51    27    48    1
    52    29    49    1
    53    29    50    1
@<TRIPOS>SUBSTRUCTURE
     1 ZINC000163855860        1 TEMP              0 ****  ****    0 ROOT


##########                                Name:    ZINC000550952205
##########                DOCK_Rotatable_Bonds:                   7
##########                         Heavy_Atoms:                  28
##########                    Molecular_Weight:             407.484
##########                DOCK_Rotatable_Bonds:                   7
##########                       Formal_Charge:        -2.68221e-07
##########                     HBond_Acceptors:                   8
##########                        HBond_Donors:                   2
##########                         Heavy_Atoms:                  28
##########                          Grid_Score:          -31.261702
##########                     Grid_vdw_energy:          -30.749226
##########                      Grid_es_energy:           -0.512477
##########           Internal_energy_repulsive:            7.092542

@<TRIPOS>MOLECULE
ZINC000550952205
 51 54 1 0 0
SMALL
USER_CHARGES


@<TRIPOS>ATOM
      1 O1         -1.0890    3.0632   52.3286 O.2     1  ZINC000550952205   -0.5100
      2 C2         -1.5162    2.4899   51.3480 C.2     1  ZINC000550952205    0.5100
      3 N3         -0.7016    2.2442   50.3027 N.am    1  ZINC000550952205   -0.7000
      4 C4          0.6981    2.6746   50.3480 C.3     1  ZINC000550952205    0.1200
      5 C5          1.5393    1.7694   49.4457 C.3     1  ZINC000550952205   -0.0900
      6 H6          1.4361    0.7332   49.7682 H       1  ZINC000550952205    0.1000
      7 C7          1.0751    1.9040   48.0208 C.3     1  ZINC000550952205   -0.1300
      8 C8          1.1972    0.5849   47.2340 C.3     1  ZINC000550952205   -0.1200
      9 C9          2.5091   -0.1671   47.5283 C.3     1  ZINC000550952205   -0.1300
     10 C10         3.6964    0.7542   47.6037 C.3     1  ZINC000550952205   -0.1500
     11 C11         3.9228    1.1420   49.0793 C.3     1  ZINC000550952205    0.3000
     12 F12         3.7266    0.0116   49.8799 F       1  ZINC000550952205   -0.2000
     13 F13         5.2411    1.5834   49.2348 F       1  ZINC000550952205   -0.2000
     14 C14         3.0207    2.1916   49.5248 C.3     1  ZINC000550952205   -0.1700
     15 C15        -2.9429    2.0513   51.3018 C.2     1  ZINC000550952205    0.5100
     16 O16        -3.3899    1.5449   50.2932 O.2     1  ZINC000550952205   -0.4900
     17 N17        -3.7342    2.2176   52.3801 N.am    1  ZINC000550952205   -0.6400
     18 C18        -5.0697    1.8070   52.3369 C.ar    1  ZINC000550952205    0.1500
     19 C19        -6.0910    2.7289   52.5610 C.ar    1  ZINC000550952205   -0.1200
     20 C20        -7.3956    2.3436   52.5219 C.ar    1  ZINC000550952205   -0.0400
     21 C21        -7.7388    1.0027   52.2538 C.ar    1  ZINC000550952205    0.0800
     22 N22        -8.9540    0.4271   52.1728 N.2     1  ZINC000550952205   -0.4700
     23 C23        -9.0065   -0.8243   51.9140 C.2     1  ZINC000550952205    0.1200
     24 C24       -10.2857   -1.6114   51.7902 C.3     1  ZINC000550952205   -0.1100
     25 C25       -10.4120   -2.8896   52.6215 C.3     1  ZINC000550952205   -0.1500
     26 C26       -11.2149   -1.6449   53.0052 C.3     1  ZINC000550952205   -0.1500
     27 S27        -7.4472   -1.4912   51.7254 S.3     1  ZINC000550952205    0.1200
     28 C28        -6.7109    0.0794   52.0287 C.ar    1  ZINC000550952205   -0.1700
     29 C29        -5.3800    0.4860   52.0660 C.ar    1  ZINC000550952205   -0.0700
     30 H30        -1.0420    1.7826   49.5205 H       1  ZINC000550952205    0.4200
     31 H31         0.7729    3.7049   50.0002 H       1  ZINC000550952205    0.0800
     32 H32         1.0654    2.6091   51.3721 H       1  ZINC000550952205    0.0800
     33 H33         0.0322    2.2210   48.0180 H       1  ZINC000550952205    0.0700
     34 H34         1.6749    2.6671   47.5250 H       1  ZINC000550952205    0.0700
     35 H35         0.3569   -0.0588   47.4945 H       1  ZINC000550952205    0.0700
     36 H36         1.1503    0.8060   46.1677 H       1  ZINC000550952205    0.0700
     37 H37         2.4093   -0.6921   48.4783 H       1  ZINC000550952205    0.0800
     38 H38         2.6805   -0.8994   46.7393 H       1  ZINC000550952205    0.0700
     39 H39         4.5801    0.2449   47.2193 H       1  ZINC000550952205    0.0900
     40 H40         3.5021    1.6509   47.0152 H       1  ZINC000550952205    0.1000
     41 H41         3.1655    3.0712   48.8976 H       1  ZINC000550952205    0.1000
     42 H42         3.2629    2.4514   50.5553 H       1  ZINC000550952205    0.1000
     43 H43        -3.3770    2.6220   53.1861 H       1  ZINC000550952205    0.4300
     44 H44        -5.8443    3.7598   52.7680 H       1  ZINC000550952205    0.1400
     45 H45        -8.1743    3.0709   52.6982 H       1  ZINC000550952205    0.1400
     46 H46       -10.7480   -1.6049   50.8031 H       1  ZINC000550952205    0.1300
     47 H47       -10.9574   -3.7244   52.1814 H       1  ZINC000550952205    0.1000
     48 H48        -9.5699   -3.1612   53.2580 H       1  ZINC000550952205    0.1100
     49 H49       -10.9011   -1.0978   53.8941 H       1  ZINC000550952205    0.1000
     50 H50       -12.2886   -1.6610   52.8175 H       1  ZINC000550952205    0.1100
     51 H51        -4.5909   -0.2291   51.8862 H       1  ZINC000550952205    0.1400
@<TRIPOS>BOND
     1     1     2    2
     2     2     3   am
     3     2    15    1
     4     3     4    1
     5     3    30    1
     6     4     5    1
     7     4    31    1
     8     4    32    1
     9     5     6    1
    10     5    14    1
    11     5     7    1
    12     7     8    1
    13     7    33    1
    14     7    34    1
    15     8     9    1
    16     8    35    1
    17     8    36    1
    18     9    10    1
    19     9    37    1
    20     9    38    1
    21    10    11    1
    22    10    39    1
    23    10    40    1
    24    11    12    1
    25    11    13    1
    26    11    14    1
    27    14    41    1
    28    14    42    1
    29    15    16    2
    30    15    17   am
    31    17    18    1
    32    17    43    1
    33    18    29   ar
    34    18    19   ar
    35    19    20   ar
    36    19    44    1
    37    20    21   ar
    38    20    45    1
    39    21    28   ar
    40    21    22    1
    41    22    23    2
    42    23    24    1
    43    23    27    1
    44    24    26    1
    45    24    25    1
    46    24    46    1
    47    25    26    1
    48    25    47    1
    49    25    48    1
    50    26    49    1
    51    26    50    1
    52    27    28    1
    53    28    29   ar
    54    29    51    1
@<TRIPOS>SUBSTRUCTURE
     1 ZINC000550952205        1 TEMP              0 ****  ****    0 ROOT


##########                                Name:    ZINC001143596311
##########                DOCK_Rotatable_Bonds:                   9
##########                         Heavy_Atoms:                  21
##########                    Molecular_Weight:             335.811
##########                DOCK_Rotatable_Bonds:                   9
##########                       Formal_Charge:          0.00999959
##########                     HBond_Acceptors:                   9
##########                        HBond_Donors:                   3
##########                         Heavy_Atoms:                  21
##########                          Grid_Score:          -31.257593
##########                     Grid_vdw_energy:          -30.473129
##########                      Grid_es_energy:           -0.784463
##########           Internal_energy_repulsive:            9.463814

@<TRIPOS>MOLECULE
ZINC001143596311
 39 39 1 0 0
SMALL
USER_CHARGES


@<TRIPOS>ATOM
      1 C1        -14.1644   -1.5408   52.6617 C.3     1  ZINC001143596311    0.0400
      2 O2        -13.5741   -2.8281   52.4706 O.3     1  ZINC001143596311   -0.2600
      3 N3        -12.1411   -2.8747   52.7617 N.3     1  ZINC001143596311   -0.3700
      4 C4        -11.7012   -4.2523   53.0206 C.3     1  ZINC001143596311    0.0000
      5 C5        -11.3627   -2.2694   51.6729 C.3     1  ZINC001143596311    0.0400
      6 C6        -10.5713   -1.0769   52.2136 C.3     1  ZINC001143596311   -0.1300
      7 C7         -9.0741   -1.3322   52.0285 C.3     1  ZINC001143596311    0.1200
      8 N8         -8.3353   -0.0867   52.2498 N.am    1  ZINC001143596311   -0.7200
      9 C9         -6.9880   -0.0993   52.2837 C.2     1  ZINC001143596311    0.5600
     10 O10        -6.3859   -1.1439   52.1290 O.2     1  ZINC001143596311   -0.5200
     11 C11        -6.2427    1.1569   52.5087 C.ar    1  ZINC001143596311   -0.1500
     12 C12        -6.8298    2.2012   53.2252 C.ar    1  ZINC001143596311   -0.0200
     13 C13        -6.1294    3.3711   53.4320 C.ar    1  ZINC001143596311   -0.1300
     14 C14        -4.8462    3.5111   52.9301 C.ar    1  ZINC001143596311    0.0700
     15 Cl15       -3.9707    4.9867   53.1945 Cl      1  ZINC001143596311   -0.0200
     16 C16        -4.2583    2.4782   52.2183 C.ar    1  ZINC001143596311   -0.6800
     17 S17        -2.6251    2.6654   51.5841 S.o2    1  ZINC001143596311    2.7000
     18 N18        -1.6182    2.8852   52.8804 N.am    1  ZINC001143596311   -1.2500
     19 O19        -2.2721    1.4148   51.0093 O.2     1  ZINC001143596311   -0.9400
     20 O20        -2.6146    3.8860   50.8565 O.2     1  ZINC001143596311   -0.9500
     21 C21        -4.9463    1.3016   52.0104 C.ar    1  ZINC001143596311    0.0500
     22 H22       -14.0368   -1.2330   53.6996 H       1  ZINC001143596311    0.0400
     23 H23       -13.6792   -0.8176   52.0061 H       1  ZINC001143596311    0.0500
     24 H24       -15.2273   -1.5897   52.4252 H       1  ZINC001143596311    0.0900
     25 H25       -11.8999   -4.8681   52.1435 H       1  ZINC001143596311    0.0400
     26 H26       -10.6323   -4.2581   53.2342 H       1  ZINC001143596311    0.0900
     27 H27       -12.2449   -4.6525   53.8764 H       1  ZINC001143596311    0.0800
     28 H28       -10.6730   -3.0082   51.2650 H       1  ZINC001143596311    0.0500
     29 H29       -12.0387   -1.9309   50.8876 H       1  ZINC001143596311    0.0900
     30 H30       -10.8559   -0.1756   51.6706 H       1  ZINC001143596311    0.0800
     31 H31       -10.7893   -0.9465   53.2735 H       1  ZINC001143596311    0.0800
     32 H32        -8.7424   -2.0837   52.7449 H       1  ZINC001143596311    0.0800
     33 H33        -8.8890   -1.6894   51.0155 H       1  ZINC001143596311    0.0800
     34 H34        -8.8158    0.7471   52.3721 H       1  ZINC001143596311    0.4000
     35 H35        -7.8306    2.0935   53.6165 H       1  ZINC001143596311    0.1500
     36 H36        -6.5825    4.1798   53.9862 H       1  ZINC001143596311    0.1600
     37 H37        -1.5528    2.2013   53.5652 H       1  ZINC001143596311    0.4200
     38 H38        -1.0937    3.6977   52.9548 H       1  ZINC001143596311    0.4200
     39 H39        -4.4870    0.4970   51.4553 H       1  ZINC001143596311    0.1700
@<TRIPOS>BOND
     1     1     2    1
     2     1    22    1
     3     1    23    1
     4     1    24    1
     5     2     3    1
     6     3     4    1
     7     3     5    1
     8     4    25    1
     9     4    26    1
    10     4    27    1
    11     5     6    1
    12     5    28    1
    13     5    29    1
    14     6     7    1
    15     6    30    1
    16     6    31    1
    17     7     8    1
    18     7    32    1
    19     7    33    1
    20     8     9   am
    21     8    34    1
    22     9    10    2
    23     9    11    1
    24    11    21   ar
    25    11    12   ar
    26    12    13   ar
    27    12    35    1
    28    13    14   ar
    29    13    36    1
    30    14    15    1
    31    14    16   ar
    32    16    17    1
    33    16    21   ar
    34    17    18   am
    35    17    19    2
    36    17    20    2
    37    18    37    1
    38    18    38    1
    39    21    39    1
@<TRIPOS>SUBSTRUCTURE
     1 ZINC001143596311        1 TEMP              0 ****  ****    0 ROOT


##########                                Name:    ZINC001342629575
##########                DOCK_Rotatable_Bonds:                   9
##########                         Heavy_Atoms:                  29
##########                    Molecular_Weight:             396.533
##########                DOCK_Rotatable_Bonds:                   9
##########                       Formal_Charge:         -0.00999976
##########                     HBond_Acceptors:                   6
##########                        HBond_Donors:                   0
##########                         Heavy_Atoms:                  29
##########                          Grid_Score:          -31.239077
##########                     Grid_vdw_energy:          -31.000225
##########                      Grid_es_energy:           -0.238852
##########           Internal_energy_repulsive:           17.823610

@<TRIPOS>MOLECULE
ZINC001342629575
 61 64 1 0 0
SMALL
USER_CHARGES


@<TRIPOS>ATOM
      1 C1        -14.0294   -5.7801   56.7481 C.2     1  ZINC001342629575   -0.1800
      2 C2        -14.1620   -4.6161   56.1620 C.2     1  ZINC001342629575   -0.1600
      3 C3        -13.3188   -4.2773   54.9599 C.3     1  ZINC001342629575   -0.0800
      4 C4        -12.8304   -2.8315   55.0706 C.3     1  ZINC001342629575    0.0500
      5 H5        -13.6883   -2.1606   55.1156 H       1  ZINC001342629575    0.0900
      6 C6        -12.0040   -2.6748   56.3210 C.2     1  ZINC001342629575    0.2000
      7 N7        -11.3719   -3.6230   56.9528 N.2     1  ZINC001342629575   -0.2700
      8 N8        -10.7671   -3.1413   57.9795 N.2     1  ZINC001342629575   -0.3000
      9 C9        -10.9828   -1.8494   58.0586 C.2     1  ZINC001342629575    0.3400
     10 N10       -10.4945   -0.9907   59.0305 N.3     1  ZINC001342629575   -0.4300
     11 C11        -9.0249   -1.1431   59.1859 C.3     1  ZINC001342629575    0.0400
     12 C12        -8.7216   -0.5781   60.5902 C.3     1  ZINC001342629575   -0.1200
     13 C13       -10.0477   -0.7044   61.3681 C.3     1  ZINC001342629575   -0.1200
     14 C14       -11.0407   -1.3352   60.3685 C.3     1  ZINC001342629575    0.0700
     15 H15       -11.0750   -2.4169   60.4980 H       1  ZINC001342629575    0.0900
     16 C16       -12.4353   -0.7326   60.5495 C.3     1  ZINC001342629575    0.1000
     17 H17       -12.4394    0.3007   60.2027 H       1  ZINC001342629575    0.0700
     18 C18       -12.8401   -0.7870   62.0382 C.3     1  ZINC001342629575   -0.1400
     19 C19       -14.3469   -1.1541   61.9570 C.3     1  ZINC001342629575   -0.1600
     20 C20       -14.3590   -2.0723   60.7088 C.3     1  ZINC001342629575    0.0500
     21 O21       -13.3947   -1.4970   59.8100 O.3     1  ZINC001342629575   -0.3700
     22 N22       -11.7737   -1.5102   56.9997 N.pl3   1  ZINC001342629575   -0.4600
     23 C23       -12.2796   -0.1767   56.6649 C.3     1  ZINC001342629575    0.1100
     24 C24       -11.3460    0.4822   55.6474 C.3     1  ZINC001342629575    0.0500
     25 O25       -10.0878    0.7598   56.2654 O.3     1  ZINC001342629575   -0.3800
     26 C26        -9.1574    1.4311   55.4134 C.3     1  ZINC001342629575    0.0300
     27 C27       -11.9896   -2.4917   53.8670 C.ar    1  ZINC001342629575   -0.0900
     28 C28       -10.6526   -2.8416   53.8368 C.ar    1  ZINC001342629575   -0.0900
     29 C29        -9.8814   -2.5300   52.7327 C.ar    1  ZINC001342629575   -0.1200
     30 C30       -10.4472   -1.8687   51.6587 C.ar    1  ZINC001342629575   -0.1200
     31 C31       -11.7844   -1.5195   51.6886 C.ar    1  ZINC001342629575   -0.1200
     32 C32       -12.5566   -1.8351   52.7908 C.ar    1  ZINC001342629575   -0.1100
     33 H33       -14.6336   -6.0229   57.6097 H       1  ZINC001342629575    0.1000
     34 H34       -13.3190   -6.4988   56.3670 H       1  ZINC001342629575    0.1000
     35 H35       -14.8755   -3.8991   56.5405 H       1  ZINC001342629575    0.1000
     36 H36       -12.4609   -4.9482   54.9170 H       1  ZINC001342629575    0.0900
     37 H37       -13.9147   -4.3911   54.0544 H       1  ZINC001342629575    0.0800
     38 H38        -8.7438   -2.1947   59.1304 H       1  ZINC001342629575    0.0600
     39 H39        -8.5004   -0.5677   58.4231 H       1  ZINC001342629575    0.0800
     40 H40        -7.9414   -1.1654   61.0742 H       1  ZINC001342629575    0.0800
     41 H41        -8.4216    0.4675   60.5209 H       1  ZINC001342629575    0.0800
     42 H42        -9.9183   -1.3538   62.2340 H       1  ZINC001342629575    0.0800
     43 H43       -10.3984    0.2791   61.6807 H       1  ZINC001342629575    0.0800
     44 H44       -12.2803   -1.5601   62.5645 H       1  ZINC001342629575    0.0900
     45 H45       -12.7027    0.1844   62.5134 H       1  ZINC001342629575    0.0800
     46 H46       -14.6679   -1.6962   62.8465 H       1  ZINC001342629575    0.0800
     47 H47       -14.9596   -0.2667   61.7977 H       1  ZINC001342629575    0.0800
     48 H48       -14.0652   -3.0858   60.9819 H       1  ZINC001342629575    0.0600
     49 H49       -15.3479   -2.0747   60.2504 H       1  ZINC001342629575    0.0900
     50 H50       -13.2788   -0.2637   56.2382 H       1  ZINC001342629575    0.1000
     51 H51       -12.3218    0.4330   57.5674 H       1  ZINC001342629575    0.1100
     52 H52       -11.1956   -0.1908   54.8033 H       1  ZINC001342629575    0.0600
     53 H53       -11.7911    1.4129   55.2954 H       1  ZINC001342629575    0.0600
     54 H54        -8.2283    1.6055   55.9560 H       1  ZINC001342629575    0.0900
     55 H55        -8.9565    0.8145   54.5374 H       1  ZINC001342629575    0.0400
     56 H56        -9.5779    2.3857   55.0971 H       1  ZINC001342629575    0.0400
     57 H57       -10.2105   -3.3582   54.6758 H       1  ZINC001342629575    0.1300
     58 H58        -8.8367   -2.8027   52.7094 H       1  ZINC001342629575    0.1200
     59 H59        -9.8445   -1.6245   50.7965 H       1  ZINC001342629575    0.1200
     60 H60       -12.2264   -1.0027   50.8496 H       1  ZINC001342629575    0.1200
     61 H61       -13.6014   -1.5623   52.8141 H       1  ZINC001342629575    0.1200
@<TRIPOS>BOND
     1     1     2    2
     2     1    33    1
     3     1    34    1
     4     2     3    1
     5     2    35    1
     6     3     4    1
     7     3    36    1
     8     3    37    1
     9     4     5    1
    10     4     6    1
    11     4    27    1
    12     6    22    1
    13     6     7    2
    14     7     8    1
    15     8     9    2
    16     9    10    1
    17     9    22    1
    18    10    14    1
    19    10    11    1
    20    11    12    1
    21    11    38    1
    22    11    39    1
    23    12    13    1
    24    12    40    1
    25    12    41    1
    26    13    14    1
    27    13    42    1
    28    13    43    1
    29    14    15    1
    30    14    16    1
    31    16    17    1
    32    16    21    1
    33    16    18    1
    34    18    19    1
    35    18    44    1
    36    18    45    1
    37    19    20    1
    38    19    46    1
    39    19    47    1
    40    20    21    1
    41    20    48    1
    42    20    49    1
    43    22    23    1
    44    23    24    1
    45    23    50    1
    46    23    51    1
    47    24    25    1
    48    24    52    1
    49    24    53    1
    50    25    26    1
    51    26    54    1
    52    26    55    1
    53    26    56    1
    54    27    32   ar
    55    27    28   ar
    56    28    29   ar
    57    28    57    1
    58    29    30   ar
    59    29    58    1
    60    30    31   ar
    61    30    59    1
    62    31    32   ar
    63    31    60    1
    64    32    61    1
@<TRIPOS>SUBSTRUCTURE
     1 ZINC001342629575        1 TEMP              0 ****  ****    0 ROOT


##########                                Name:    ZINC000550011575
##########                DOCK_Rotatable_Bonds:                   6
##########                         Heavy_Atoms:                  28
##########                    Molecular_Weight:             423.935
##########                DOCK_Rotatable_Bonds:                   6
##########                       Formal_Charge:          -0.0100002
##########                     HBond_Acceptors:                   7
##########                        HBond_Donors:                   0
##########                         Heavy_Atoms:                  28
##########                          Grid_Score:          -31.235119
##########                     Grid_vdw_energy:          -31.270138
##########                      Grid_es_energy:            0.035020
##########           Internal_energy_repulsive:           36.595791

@<TRIPOS>MOLECULE
ZINC000550011575
 51 53 1 0 0
SMALL
USER_CHARGES


@<TRIPOS>ATOM
      1 C1        -14.3241   -2.4996   52.5750 C.3     1  ZINC000550011575   -0.1400
      2 C2        -13.2014   -2.1110   53.5391 C.3     1  ZINC000550011575   -0.6100
      3 H3        -13.4288   -1.1458   53.9915 H       1  ZINC000550011575    0.1500
      4 C4        -13.0817   -3.1561   54.6183 C.2     1  ZINC000550011575    0.5400
      5 O5        -12.2736   -4.0534   54.5066 O.2     1  ZINC000550011575   -0.5100
      6 N6        -13.8730   -3.0935   55.7075 N.am    1  ZINC000550011575   -0.6000
      7 C7        -14.8505   -2.0105   55.8416 C.3     1  ZINC000550011575    0.0600
      8 C8        -13.7554   -4.1083   56.7575 C.3     1  ZINC000550011575    0.1500
      9 C9        -13.5659   -3.4322   58.0909 C.ar    1  ZINC000550011575   -0.1500
     10 C10       -14.6497   -3.2405   58.9303 C.ar    1  ZINC000550011575    0.1400
     11 F11       -15.8780   -3.6593   58.5546 F       1  ZINC000550011575   -0.1100
     12 C12       -14.4741   -2.6196   60.1557 C.ar    1  ZINC000550011575   -0.1500
     13 C13       -13.2175   -2.1919   60.5397 C.ar    1  ZINC000550011575   -0.0700
     14 C14       -12.1350   -2.3834   59.7014 C.ar    1  ZINC000550011575   -0.1300
     15 C15       -12.3077   -3.0082   58.4792 C.ar    1  ZINC000550011575    0.0000
     16 Cl16      -10.9477   -3.2488   57.4275 Cl      1  ZINC000550011575   -0.0500
     17 S17       -11.6356   -1.9986   52.6300 S.o2    1  ZINC000550011575    2.4500
     18 O18       -11.2261   -3.3108   52.2696 O.2     1  ZINC000550011575   -0.9200
     19 O19       -11.7700   -1.0111   51.6171 O.2     1  ZINC000550011575   -0.9100
     20 C20       -10.5071   -1.3703   53.9036 C.3     1  ZINC000550011575   -0.5300
     21 H21       -10.2264   -2.1864   54.5694 H       1  ZINC000550011575    0.1500
     22 C22       -11.2136   -0.2827   54.7104 C.3     1  ZINC000550011575   -0.1100
     23 C23       -10.1841    0.3834   55.6307 C.3     1  ZINC000550011575   -0.1100
     24 C24        -9.2215    1.1971   54.7680 C.3     1  ZINC000550011575   -0.0900
     25 C25        -8.6744    0.3539   53.6461 C.ar    1  ZINC000550011575   -0.0600
     26 C26        -7.5245    0.7969   53.0060 C.ar    1  ZINC000550011575   -0.1200
     27 C27        -6.9770    0.0724   51.9672 C.ar    1  ZINC000550011575   -0.1100
     28 C28        -7.5779   -1.1036   51.5591 C.ar    1  ZINC000550011575   -0.1100
     29 C29        -8.7192   -1.5466   52.1954 C.ar    1  ZINC000550011575   -0.1500
     30 C30        -9.2700   -0.8200   53.2435 C.ar    1  ZINC000550011575   -0.0800
     31 H31       -14.5210   -1.6715   51.8940 H       1  ZINC000550011575    0.0900
     32 H32       -14.0239   -3.3772   52.0025 H       1  ZINC000550011575    0.0900
     33 H33       -15.2271   -2.7267   53.1415 H       1  ZINC000550011575    0.0800
     34 H34       -15.7968   -2.3181   55.3967 H       1  ZINC000550011575    0.0700
     35 H35       -15.0013   -1.7860   56.8975 H       1  ZINC000550011575    0.0800
     36 H36       -14.4805   -1.1218   55.3305 H       1  ZINC000550011575    0.0700
     37 H37       -14.6625   -4.7124   56.7820 H       1  ZINC000550011575    0.1000
     38 H38       -12.8982   -4.7486   56.5496 H       1  ZINC000550011575    0.1100
     39 H39       -15.3193   -2.4694   60.8109 H       1  ZINC000550011575    0.1500
     40 H40       -13.0810   -1.7073   61.4953 H       1  ZINC000550011575    0.1500
     41 H41       -11.1534   -2.0484   60.0024 H       1  ZINC000550011575    0.1400
     42 H42       -11.6360    0.4602   54.0338 H       1  ZINC000550011575    0.0800
     43 H43       -12.0080   -0.7278   55.3096 H       1  ZINC000550011575    0.0900
     44 H44       -10.6928    1.0422   56.3345 H       1  ZINC000550011575    0.0800
     45 H45        -9.6310   -0.3809   56.1768 H       1  ZINC000550011575    0.0700
     46 H46        -9.7503    2.0533   54.3493 H       1  ZINC000550011575    0.0800
     47 H47        -8.3970    1.5518   55.3863 H       1  ZINC000550011575    0.0800
     48 H48        -7.0550    1.7161   53.3237 H       1  ZINC000550011575    0.1300
     49 H49        -6.0822    0.4231   51.4743 H       1  ZINC000550011575    0.1300
     50 H50        -7.1557   -1.6736   50.7446 H       1  ZINC000550011575    0.1300
     51 H51        -9.1884   -2.4652   51.8756 H       1  ZINC000550011575    0.1700
@<TRIPOS>BOND
     1     1     2    1
     2     1    31    1
     3     1    32    1
     4     1    33    1
     5     2     3    1
     6     2     4    1
     7     2    17    1
     8     4     5    2
     9     4     6   am
    10     6     7    1
    11     6     8    1
    12     7    34    1
    13     7    35    1
    14     7    36    1
    15     8     9    1
    16     8    37    1
    17     8    38    1
    18     9    15   ar
    19     9    10   ar
    20    10    11    1
    21    10    12   ar
    22    12    13   ar
    23    12    39    1
    24    13    14   ar
    25    13    40    1
    26    14    15   ar
    27    14    41    1
    28    15    16    1
    29    17    18    2
    30    17    19    2
    31    17    20    1
    32    20    21    1
    33    20    30    1
    34    20    22    1
    35    22    23    1
    36    22    42    1
    37    22    43    1
    38    23    24    1
    39    23    44    1
    40    23    45    1
    41    24    25    1
    42    24    46    1
    43    24    47    1
    44    25    30   ar
    45    25    26   ar
    46    26    27   ar
    47    26    48    1
    48    27    28   ar
    49    27    49    1
    50    28    29   ar
    51    28    50    1
    52    29    30   ar
    53    29    51    1
@<TRIPOS>SUBSTRUCTURE
     1 ZINC000550011575        1 TEMP              0 ****  ****    0 ROOT


##########                                Name:    ZINC000944933040
##########                DOCK_Rotatable_Bonds:                   4
##########                         Heavy_Atoms:                  26
##########                    Molecular_Weight:             354.449
##########                DOCK_Rotatable_Bonds:                   4
##########                       Formal_Charge:           0.0100002
##########                     HBond_Acceptors:                   5
##########                        HBond_Donors:                   0
##########                         Heavy_Atoms:                  26
##########                          Grid_Score:          -31.189566
##########                     Grid_vdw_energy:          -29.690273
##########                      Grid_es_energy:           -1.499293
##########           Internal_energy_repulsive:           12.564351

@<TRIPOS>MOLECULE
ZINC000944933040
 52 57 1 0 0
SMALL
USER_CHARGES


@<TRIPOS>ATOM
      1 O1        -12.7073    0.0920   63.2622 O.2     1  ZINC000944933040   -0.5200
      2 C2        -11.5727    0.0248   62.8296 C.2     1  ZINC000944933040    0.6400
      3 C3        -10.5207    0.7635   63.4608 C.1     1  ZINC000944933040   -0.2200
      4 C4         -9.6584    1.3691   63.9783 C.1     1  ZINC000944933040   -0.0400
      5 C5         -8.5772    2.1285   64.6271 C.3     1  ZINC000944933040   -0.0700
      6 C6         -8.0827    1.6317   65.9872 C.3     1  ZINC000944933040   -0.1600
      7 C7         -7.2099    1.4517   64.7435 C.3     1  ZINC000944933040   -0.1600
      8 N8        -11.3043   -0.7493   61.7594 N.am    1  ZINC000944933040   -0.6000
      9 C9         -9.9354   -0.8477   61.2359 C.3     1  ZINC000944933040    0.1100
     10 C10        -9.9470   -0.4672   59.7505 C.3     1  ZINC000944933040   -0.1200
     11 C11       -11.0042   -1.2998   59.0294 C.3     1  ZINC000944933040   -0.0900
     12 C12       -10.9559   -1.1653   57.5012 C.3     1  ZINC000944933040    0.1200
     13 N13       -11.1656   -2.6266   57.4697 N.am    1  ZINC000944933040   -0.6400
     14 C14       -11.6723   -3.4883   56.5657 C.2     1  ZINC000944933040    0.5500
     15 O15       -11.7231   -4.6731   56.8195 O.2     1  ZINC000944933040   -0.5300
     16 C16       -12.1758   -2.9795   55.2395 C.3     1  ZINC000944933040   -0.1300
     17 H17       -12.8901   -2.1690   55.3844 H       1  ZINC000944933040    0.1100
     18 C18       -12.8095   -4.1290   54.4151 C.3     1  ZINC000944933040   -0.1300
     19 C19       -11.9060   -4.1825   53.1467 C.3     1  ZINC000944933040    0.0900
     20 H20       -11.9179   -5.1277   52.6040 H       1  ZINC000944933040    0.1300
     21 O21       -10.6095   -3.7856   53.7024 O.3     1  ZINC000944933040   -0.3600
     22 C22       -10.9907   -2.5166   54.3399 C.3     1  ZINC000944933040    0.1200
     23 H23       -10.1865   -1.9813   54.8447 H       1  ZINC000944933040    0.1400
     24 C24       -11.6487   -1.7624   53.1457 C.3     1  ZINC000944933040   -0.2000
     25 H25       -12.1610   -0.8222   53.3497 H       1  ZINC000944933040    0.1200
     26 C26       -11.1019   -2.0538   51.7467 C.3     1  ZINC000944933040   -0.1300
     27 C27       -12.2955   -2.9269   52.3102 C.3     1  ZINC000944933040   -0.2000
     28 H28       -13.2834   -2.8656   51.8537 H       1  ZINC000944933040    0.1300
     29 C29       -10.5969   -2.7658   58.8253 C.3     1  ZINC000944933040    0.1100
     30 C30       -12.4043   -1.1310   59.6143 C.3     1  ZINC000944933040   -0.1100
     31 C31       -12.3753   -1.5114   61.1040 C.3     1  ZINC000944933040    0.1100
     32 H32        -8.5931    3.2054   64.4598 H       1  ZINC000944933040    0.1400
     33 H33        -7.7733    2.3819   66.7149 H       1  ZINC000944933040    0.1100
     34 H34        -8.5580    0.7426   66.4014 H       1  ZINC000944933040    0.1000
     35 H35        -7.1111    0.4441   64.3395 H       1  ZINC000944933040    0.1000
     36 H36        -6.3263    2.0835   64.6530 H       1  ZINC000944933040    0.1100
     37 H37        -9.2851   -0.1651   61.7829 H       1  ZINC000944933040    0.0900
     38 H38        -9.5736   -1.8696   61.3485 H       1  ZINC000944933040    0.0800
     39 H39       -10.1845    0.5917   59.6474 H       1  ZINC000944933040    0.0800
     40 H40        -8.9676   -0.6661   59.3158 H       1  ZINC000944933040    0.0900
     41 H41       -11.7844   -0.5931   57.0839 H       1  ZINC000944933040    0.0800
     42 H42        -9.9848   -0.8521   57.1179 H       1  ZINC000944933040    0.0900
     43 H43       -12.7611   -5.0697   54.9635 H       1  ZINC000944933040    0.0800
     44 H44       -13.8384   -3.8898   54.1465 H       1  ZINC000944933040    0.0900
     45 H45       -11.3457   -1.3451   50.9551 H       1  ZINC000944933040    0.1000
     46 H46       -10.1146   -2.5106   51.6789 H       1  ZINC000944933040    0.1000
     47 H47        -9.5191   -2.9281   58.8354 H       1  ZINC000944933040    0.0900
     48 H48       -11.1400   -3.4655   59.4604 H       1  ZINC000944933040    0.0800
     49 H49       -12.7215   -0.0937   59.5068 H       1  ZINC000944933040    0.0800
     50 H50       -13.1006   -1.7826   59.0866 H       1  ZINC000944933040    0.0800
     51 H51       -12.1850   -2.5800   61.2047 H       1  ZINC000944933040    0.0700
     52 H52       -13.3324   -1.2636   61.5632 H       1  ZINC000944933040    0.1000
@<TRIPOS>BOND
     1     1     2    2
     2     2     3    1
     3     2     8   am
     4     3     4    3
     5     4     5    1
     6     5     7    1
     7     5     6    1
     8     5    32    1
     9     6     7    1
    10     6    33    1
    11     6    34    1
    12     7    35    1
    13     7    36    1
    14     8    31    1
    15     8     9    1
    16     9    10    1
    17     9    37    1
    18     9    38    1
    19    10    11    1
    20    10    39    1
    21    10    40    1
    22    11    29    1
    23    11    12    1
    24    11    30    1
    25    12    13    1
    26    12    41    1
    27    12    42    1
    28    13    14   am
    29    13    29    1
    30    14    15    2
    31    14    16    1
    32    16    17    1
    33    16    22    1
    34    16    18    1
    35    18    19    1
    36    18    43    1
    37    18    44    1
    38    19    20    1
    39    19    27    1
    40    19    21    1
    41    21    22    1
    42    22    23    1
    43    22    24    1
    44    24    25    1
    45    24    27    1
    46    24    26    1
    47    26    27    1
    48    26    45    1
    49    26    46    1
    50    27    28    1
    51    29    47    1
    52    29    48    1
    53    30    31    1
    54    30    49    1
    55    30    50    1
    56    31    51    1
    57    31    52    1
@<TRIPOS>SUBSTRUCTURE
     1 ZINC000944933040        1 TEMP              0 ****  ****    0 ROOT


##########                                Name:    ZINC000007167963
##########                DOCK_Rotatable_Bonds:                   8
##########                         Heavy_Atoms:                  25
##########                    Molecular_Weight:             378.433
##########                DOCK_Rotatable_Bonds:                   8
##########                       Formal_Charge:        -1.01328e-06
##########                     HBond_Acceptors:                  10
##########                        HBond_Donors:                   3
##########                         Heavy_Atoms:                  25
##########                          Grid_Score:          -31.188162
##########                     Grid_vdw_energy:          -28.597929
##########                      Grid_es_energy:           -2.590233
##########           Internal_energy_repulsive:            7.476071

@<TRIPOS>MOLECULE
ZINC000007167963
 39 41 1 0 0
SMALL
USER_CHARGES


@<TRIPOS>ATOM
      1 C1          1.0212    3.9376   56.6055 C.3     1  ZINC000007167963   -0.0800
      2 C2          0.1061    2.9013   57.2054 C.2     1  ZINC000007167963    0.0900
      3 C3         -1.1520    2.6071   56.7778 C.2     1  ZINC000007167963   -0.1500
      4 C4         -1.8804    3.2293   55.6523 C.2     1  ZINC000007167963    0.2600
      5 N5         -1.4331    4.1810   54.8697 N.2     1  ZINC000007167963   -0.2700
      6 N6         -2.3330    4.4775   53.9995 N.2     1  ZINC000007167963   -0.2800
      7 C7         -3.3911    3.7268   54.1917 C.2     1  ZINC000007167963    0.1200
      8 S8         -4.8807    3.7639   53.2514 S.3     1  ZINC000007167963    0.1500
      9 C9         -6.0698    3.2789   54.5270 C.3     1  ZINC000007167963   -0.1200
     10 H10        -5.5853    2.6129   55.2410 H       1  ZINC000007167963    0.1400
     11 C11        -6.5742    4.5266   55.2548 C.3     1  ZINC000007167963   -0.1500
     12 C12        -7.2328    2.5671   53.8852 C.2     1  ZINC000007167963    0.5300
     13 O13        -8.0159    3.1849   53.1954 O.2     1  ZINC000007167963   -0.4900
     14 N14        -7.4024    1.2440   54.0779 N.am    1  ZINC000007167963   -0.6100
     15 C15        -8.4716    0.5888   53.4859 C.2     1  ZINC000007167963    0.0800
     16 C16        -8.3646   -0.2887   52.4383 C.2     1  ZINC000007167963   -0.2400
     17 C17        -7.0907   -0.6470   51.8069 C.2     1  ZINC000007167963    0.5900
     18 N18        -6.2732    0.3190   51.3429 N.am    1  ZINC000007167963   -0.8400
     19 O19        -6.7713   -1.8167   51.7018 O.2     1  ZINC000007167963   -0.5600
     20 C20        -9.6423   -0.8243   52.0227 C.2     1  ZINC000007167963   -0.0900
     21 C21       -10.6587   -0.3607   52.7360 C.2     1  ZINC000007167963   -0.2800
     22 S22       -10.0982    0.7584   53.9657 S.3     1  ZINC000007167963    0.3000
     23 O23        -3.1278    2.9178   55.2366 O.3     1  ZINC000007167963   -0.2000
     24 C24        -1.6353    1.5425   57.6667 C.2     1  ZINC000007167963   -0.1800
     25 C25        -0.6371    1.3005   58.5319 C.2     1  ZINC000007167963   -0.0300
     26 O26         0.3954    2.1085   58.2471 O.3     1  ZINC000007167963   -0.1700
     27 H27         1.9650    3.9483   57.1507 H       1  ZINC000007167963    0.0800
     28 H28         1.2086    3.6951   55.5595 H       1  ZINC000007167963    0.1000
     29 H29         0.5518    4.9192   56.6725 H       1  ZINC000007167963    0.1000
     30 H30        -5.7331    5.0415   55.7190 H       1  ZINC000007167963    0.0900
     31 H31        -7.0587    5.1927   54.5408 H       1  ZINC000007167963    0.0800
     32 H32        -7.2902    4.2346   56.0229 H       1  ZINC000007167963    0.0800
     33 H33        -6.7767    0.7502   54.6306 H       1  ZINC000007167963    0.4400
     34 H34        -5.4310    0.0817   50.9242 H       1  ZINC000007167963    0.4000
     35 H35        -6.5271    1.2512   51.4277 H       1  ZINC000007167963    0.4100
     36 H36        -9.7566   -1.5297   51.2130 H       1  ZINC000007167963    0.1500
     37 H37       -11.6915   -0.6373   52.5834 H       1  ZINC000007167963    0.1700
     38 H38        -2.5979    1.0541   57.6319 H       1  ZINC000007167963    0.1600
     39 H39        -0.6603    0.5696   59.3268 H       1  ZINC000007167963    0.2200
@<TRIPOS>BOND
     1     1     2    1
     2     1    27    1
     3     1    28    1
     4     1    29    1
     5     2    26    1
     6     2     3    2
     7     3     4    1
     8     3    24    1
     9     4    23    1
    10     4     5    2
    11     5     6    1
    12     6     7    2
    13     7     8    1
    14     7    23    1
    15     8     9    1
    16     9    10    1
    17     9    11    1
    18     9    12    1
    19    11    30    1
    20    11    31    1
    21    11    32    1
    22    12    13    2
    23    12    14   am
    24    14    15    1
    25    14    33    1
    26    15    22    1
    27    15    16    2
    28    16    17    1
    29    16    20    1
    30    17    18   am
    31    17    19    2
    32    18    34    1
    33    18    35    1
    34    20    21    2
    35    20    36    1
    36    21    22    1
    37    21    37    1
    38    24    25    2
    39    24    38    1
    40    25    26    1
    41    25    39    1
@<TRIPOS>SUBSTRUCTURE
     1 ZINC000007167963        1 TEMP              0 ****  ****    0 ROOT


##########                                Name:    ZINC000342525234
##########                DOCK_Rotatable_Bonds:                   6
##########                         Heavy_Atoms:                  25
##########                    Molecular_Weight:             333.349
##########                DOCK_Rotatable_Bonds:                   6
##########                       Formal_Charge:           0.0500003
##########                     HBond_Acceptors:                   7
##########                        HBond_Donors:                   2
##########                         Heavy_Atoms:                  25
##########                          Grid_Score:          -31.186934
##########                     Grid_vdw_energy:          -29.270914
##########                      Grid_es_energy:           -1.916019
##########           Internal_energy_repulsive:            4.457729

@<TRIPOS>MOLECULE
ZINC000342525234
 40 43 1 0 0
SMALL
USER_CHARGES


@<TRIPOS>ATOM
      1 O1        -11.6841   -4.1516   57.0111 O.2     1  <0>        -0.5100
      2 C2        -11.1087   -3.0829   57.0635 C.2     1  <0>         0.6000
      3 N3        -10.7562   -2.4509   55.9265 N.am    1  <0>        -0.7100
      4 C4        -11.0613   -3.0555   54.6275 C.3     1  <0>         0.1200
      5 C5        -11.3310   -1.9524   53.6021 C.3     1  <0>        -0.0900
      6 C6        -10.0365   -1.2650   53.2517 C.ar    1  <0>        -0.0400
      7 C7         -9.1408   -1.9085   52.4622 C.ar    1  <0>        -0.1000
      8 C8         -7.9248   -1.2745   52.1274 C.ar    1  <0>         0.1100
      9 N9         -6.8711   -1.6095   51.4054 N.2     1  <0>        -0.3100
     10 N10        -5.9488   -0.5572   51.4313 N.pl3   1  <0>        -0.4200
     11 C11        -6.4250    0.4499   52.1758 C.2     1  <0>         0.0900
     12 C12        -7.6680    0.0759   52.6516 C.ar    1  <0>        -0.2100
     13 C13        -8.6453    0.6849   53.4675 C.ar    1  <0>        -0.0400
     14 C14        -9.7946    0.0194   53.7444 C.ar    1  <0>        -0.1500
     15 C15       -10.7996   -2.4706   58.3788 C.2     1  <0>        -0.0200
     16 N16       -10.9515   -3.0225   59.5578 N.2     1  <0>        -0.3200
     17 O17       -10.6136   -2.2779   60.4480 O.3     1  <0>         0.1400
     18 C18       -10.1790   -1.0976   59.9725 C.2     1  <0>         0.0100
     19 C19        -9.6890    0.0509   60.7650 C.ar    1  <0>         0.0200
     20 C20        -9.4708    1.2971   60.1662 C.ar    1  <0>        -0.1400
     21 C21        -9.0135    2.3414   60.9433 C.ar    1  <0>         0.1100
     22 N22        -8.7824    2.1767   62.2316 N.ar    1  <0>        -0.4800
     23 C23        -8.9747    1.0194   62.8352 C.ar    1  <0>         0.1100
     24 C24        -9.4359   -0.0765   62.1355 C.ar    1  <0>        -0.1500
     25 C25       -10.2744   -1.1722   58.6112 C.2     1  <0>        -0.1500
     26 H26       -10.3002   -1.5957   55.9683 H       1  <0>         0.4100
     27 H27       -10.2143   -3.6578   54.2990 H       1  <0>         0.0800
     28 H28       -11.9434   -3.6891   54.7200 H       1  <0>         0.0800
     29 H29       -11.7649   -2.3901   52.7032 H       1  <0>         0.0900
     30 H30       -12.0255   -1.2260   54.0243 H       1  <0>         0.0800
     31 H31        -9.3564   -2.8999   52.0922 H       1  <0>         0.1300
     32 H32        -5.0916   -0.5569   50.9776 H       1  <0>         0.4500
     33 H33        -5.9260    1.3877   52.3703 H       1  <0>         0.1900
     34 H34        -8.4814    1.6757   53.8650 H       1  <0>         0.1300
     35 H35       -10.5382    0.4917   54.3692 H       1  <0>         0.1200
     36 H36        -9.6574    1.4389   59.1120 H       1  <0>         0.1400
     37 H37        -8.8422    3.3068   60.4906 H       1  <0>         0.1700
     38 H38        -8.7722    0.9299   63.8922 H       1  <0>         0.1700
     39 H39        -9.5911   -1.0209   62.6362 H       1  <0>         0.1500
     40 H40       -10.0166   -0.4176   57.8828 H       1  <0>         0.1900
@<TRIPOS>BOND
     1     1     2    2
     2     2     3   am
     3     2    15    1
     4     3     4    1
     5     3    26    1
     6     4     5    1
     7     4    27    1
     8     4    28    1
     9     5     6    1
    10     5    29    1
    11     5    30    1
    12     6    14   ar
    13     6     7   ar
    14     7     8   ar
    15     7    31    1
    16     8    12   ar
    17     8     9    2
    18     9    10    1
    19    10    11    1
    20    10    32    1
    21    11    12    2
    22    11    33    1
    23    12    13   ar
    24    13    14   ar
    25    13    34    1
    26    14    35    1
    27    15    25    1
    28    15    16    2
    29    16    17    1
    30    17    18    1
    31    18    19    1
    32    18    25    2
    33    19    24   ar
    34    19    20   ar
    35    20    21   ar
    36    20    36    1
    37    21    22   ar
    38    21    37    1
    39    22    23   ar
    40    23    24   ar
    41    23    38    1
    42    24    39    1
    43    25    40    1
@<TRIPOS>SUBSTRUCTURE
     1 <0>         1 TEMP              0 ****  ****    0 ROOT


##########                                Name:    ZINC000774689801
##########                DOCK_Rotatable_Bonds:                   4
##########                         Heavy_Atoms:                  24
##########                    Molecular_Weight:             347.395
##########                DOCK_Rotatable_Bonds:                   4
##########                       Formal_Charge:         -0.00999961
##########                     HBond_Acceptors:                   8
##########                        HBond_Donors:                   1
##########                         Heavy_Atoms:                  24
##########                          Grid_Score:          -31.179871
##########                     Grid_vdw_energy:          -32.046013
##########                      Grid_es_energy:            0.866141
##########           Internal_energy_repulsive:            5.802165

@<TRIPOS>MOLECULE
ZINC000774689801
 41 44 1 0 0
SMALL
USER_CHARGES


@<TRIPOS>ATOM
      1 C1         -9.3616    1.1736   54.3723 C.3     1  ZINC000774689801   -0.1200
      2 C2         -8.5601    0.3470   53.3999 C.2     1  ZINC000774689801    0.0600
      3 C3         -9.0131   -0.8160   52.9048 C.2     1  ZINC000774689801   -0.2800
      4 C4        -10.3075   -1.4161   53.2347 C.2     1  ZINC000774689801    0.5500
      5 O5        -11.3352   -0.8037   53.0153 O.2     1  ZINC000774689801   -0.4900
      6 O6        -10.3601   -2.6481   53.7817 O.3     1  ZINC000774689801   -0.3400
      7 C7        -11.5958   -3.3917   53.6136 C.3     1  ZINC000774689801    0.0900
      8 C8        -12.4366   -3.2780   54.8868 C.3     1  ZINC000774689801   -0.1300
      9 H9        -12.5934   -2.2312   55.1472 H       1  ZINC000774689801    0.1200
     10 C10       -13.7922   -3.9996   54.7064 C.3     1  ZINC000774689801   -0.1300
     11 C11       -14.0185   -4.6009   56.1112 C.3     1  ZINC000774689801    0.1000
     12 N12       -12.6794   -4.7529   56.6924 N.am    1  ZINC000774689801   -0.7400
     13 C13       -11.7705   -4.0136   56.0287 C.2     1  ZINC000774689801    0.5200
     14 O14       -10.5911   -3.9508   56.3044 O.2     1  ZINC000774689801   -0.5100
     15 S15        -7.8365   -1.5163   51.8062 S.3     1  ZINC000774689801    0.3000
     16 C16        -6.7297   -0.1716   52.0572 C.2     1  ZINC000774689801    0.1000
     17 C17        -7.3015    0.7411   52.9498 C.2     1  ZINC000774689801   -0.2500
     18 C18        -6.5070    1.9401   53.2781 C.2     1  ZINC000774689801    0.5700
     19 O19        -6.9376    2.7796   54.0486 O.2     1  ZINC000774689801   -0.5000
     20 N20        -5.2893    2.0874   52.7054 N.am    1  ZINC000774689801   -0.5500
     21 C21        -4.3205    3.1853   52.8673 C.3     1  ZINC000774689801    0.0900
     22 C22        -2.9745    2.6290   52.3590 C.3     1  ZINC000774689801   -0.1300
     23 C23        -3.4371    1.5476   51.3590 C.3     1  ZINC000774689801   -0.0800
     24 C24        -4.8172    1.1444   51.8512 C.2     1  ZINC000774689801    0.4200
     25 N25        -5.5118    0.0804   51.5471 N.2     1  ZINC000774689801   -0.5100
     26 H26        -9.9918    1.8722   53.8220 H       1  ZINC000774689801    0.0800
     27 H27        -9.9881    0.5177   54.9766 H       1  ZINC000774689801    0.1000
     28 H28        -8.6846    1.7289   55.0214 H       1  ZINC000774689801    0.0800
     29 H29       -12.1543   -2.9828   52.7716 H       1  ZINC000774689801    0.0900
     30 H30       -11.3660   -4.4399   53.4224 H       1  ZINC000774689801    0.0800
     31 H31       -14.5809   -3.2908   54.4538 H       1  ZINC000774689801    0.1000
     32 H32       -13.7193   -4.7843   53.9534 H       1  ZINC000774689801    0.0900
     33 H33       -14.6188   -3.9239   56.7191 H       1  ZINC000774689801    0.0800
     34 H34       -14.5075   -5.5717   56.0317 H       1  ZINC000774689801    0.0800
     35 H35       -12.4753   -5.3128   57.4577 H       1  ZINC000774689801    0.4100
     36 H36        -4.6226    4.0454   52.2697 H       1  ZINC000774689801    0.1000
     37 H37        -4.2401    3.4649   53.9177 H       1  ZINC000774689801    0.1000
     38 H38        -2.3974    3.4046   51.8553 H       1  ZINC000774689801    0.1100
     39 H39        -2.4024    2.1869   53.1746 H       1  ZINC000774689801    0.0900
     40 H40        -3.4975    1.9605   50.3520 H       1  ZINC000774689801    0.1200
     41 H41        -2.7602    0.6935   51.3814 H       1  ZINC000774689801    0.1200
@<TRIPOS>BOND
     1     1     2    1
     2     1    26    1
     3     1    27    1
     4     1    28    1
     5     2    17    1
     6     2     3    2
     7     3     4    1
     8     3    15    1
     9     4     5    2
    10     4     6    1
    11     6     7    1
    12     7     8    1
    13     7    29    1
    14     7    30    1
    15     8     9    1
    16     8    13    1
    17     8    10    1
    18    10    11    1
    19    10    31    1
    20    10    32    1
    21    11    12    1
    22    11    33    1
    23    11    34    1
    24    12    13   am
    25    12    35    1
    26    13    14    2
    27    15    16    1
    28    16    25    1
    29    16    17    2
    30    17    18    1
    31    18    19    2
    32    18    20   am
    33    20    24    1
    34    20    21    1
    35    21    22    1
    36    21    36    1
    37    21    37    1
    38    22    23    1
    39    22    38    1
    40    22    39    1
    41    23    24    1
    42    23    40    1
    43    23    41    1
    44    24    25    2
@<TRIPOS>SUBSTRUCTURE
     1 ZINC000774689801        1 TEMP              0 ****  ****    0 ROOT


##########                                Name:    ZINC000821177065
##########                DOCK_Rotatable_Bonds:                  10
##########                         Heavy_Atoms:                  25
##########                    Molecular_Weight:             341.413
##########                DOCK_Rotatable_Bonds:                  10
##########                       Formal_Charge:          0.00999917
##########                     HBond_Acceptors:                   7
##########                        HBond_Donors:                   3
##########                         Heavy_Atoms:                  25
##########                          Grid_Score:          -31.169191
##########                     Grid_vdw_energy:          -30.814137
##########                      Grid_es_energy:           -0.355054
##########           Internal_energy_repulsive:           17.768984

@<TRIPOS>MOLECULE
ZINC000821177065
 48 51 1 0 0
SMALL
USER_CHARGES


@<TRIPOS>ATOM
      1 O1        -12.8834   -1.7978   56.6936 O.2     1  ZINC000821177065   -0.5600
      2 C2        -12.0406   -2.4977   57.2211 C.2     1  ZINC000821177065    0.7100
      3 N3        -11.9541   -2.5513   58.5651 N.am    1  ZINC000821177065   -0.7300
      4 C4        -12.8716   -1.7617   59.3902 C.3     1  ZINC000821177065    0.1200
      5 C5        -12.2792   -1.5904   60.7905 C.3     1  ZINC000821177065    0.1900
      6 O6        -11.7078   -2.8275   61.2206 O.3     1  ZINC000821177065   -0.5400
      7 C7        -11.1946   -0.5119   60.7570 C.3     1  ZINC000821177065   -0.1500
      8 C8         -9.9576   -0.7266   61.6314 C.3     1  ZINC000821177065   -0.1600
      9 C9         -9.8558   -0.8762   60.1121 C.3     1  ZINC000821177065   -0.1700
     10 C10       -13.3836   -1.1730   61.7638 C.3     1  ZINC000821177065   -0.1800
     11 C11       -14.6842   -0.6321   61.1668 C.3     1  ZINC000821177065   -0.1900
     12 C12       -14.6538   -2.0252   61.7986 C.3     1  ZINC000821177065   -0.1700
     13 N13       -11.1965   -3.2240   56.4620 N.am    1  ZINC000821177065   -0.6500
     14 C14       -11.2866   -3.1683   55.0640 C.2     1  ZINC000821177065    0.3200
     15 N15       -10.7596   -2.2458   54.2940 N.2     1  ZINC000821177065   -0.3200
     16 N16       -11.0778   -2.5524   52.9648 N.pl3   1  ZINC000821177065   -0.3600
     17 C17       -10.6834   -1.7786   51.7850 C.3     1  ZINC000821177065    0.1900
     18 C18        -9.3340   -1.1513   52.0238 C.ar    1  ZINC000821177065    0.1100
     19 C19        -9.2575    0.1438   52.4993 C.ar    1  ZINC000821177065   -0.1500
     20 C20        -8.0110    0.7115   52.7160 C.ar    1  ZINC000821177065   -0.0700
     21 C21        -6.8837   -0.0484   52.4449 C.ar    1  ZINC000821177065   -0.1700
     22 C22        -7.0385   -1.3376   51.9710 C.ar    1  ZINC000821177065    0.1000
     23 N23        -8.2399   -1.8468   51.7814 N.ar    1  ZINC000821177065   -0.4700
     24 C24       -11.8107   -3.6857   52.9609 C.2     1  ZINC000821177065    0.0700
     25 C25       -11.9512   -4.0930   54.2429 C.2     1  ZINC000821177065   -0.2600
     26 H26       -11.2843   -3.1127   58.9859 H       1  ZINC000821177065    0.4000
     27 H27       -13.0178   -0.7820   58.9353 H       1  ZINC000821177065    0.0700
     28 H28       -13.8300   -2.2759   59.4616 H       1  ZINC000821177065    0.0800
     29 H29       -11.2184   -2.7667   62.0523 H       1  ZINC000821177065    0.3800
     30 H30       -11.5517    0.5104   60.6320 H       1  ZINC000821177065    0.1100
     31 H31        -9.5007    0.1545   62.0821 H       1  ZINC000821177065    0.0900
     32 H32        -9.9165   -1.6362   62.2305 H       1  ZINC000821177065    0.1100
     33 H33        -9.7478   -1.8842   59.7118 H       1  ZINC000821177065    0.1000
     34 H34        -9.3320   -0.0936   59.5633 H       1  ZINC000821177065    0.0900
     35 H35       -13.0424   -0.7395   62.7039 H       1  ZINC000821177065    0.1100
     36 H36       -15.1990    0.1576   61.7139 H       1  ZINC000821177065    0.1000
     37 H37       -14.7533   -0.5736   60.0805 H       1  ZINC000821177065    0.1100
     38 H38       -14.7028   -2.8832   61.1281 H       1  ZINC000821177065    0.0900
     39 H39       -15.1485   -2.1520   62.7616 H       1  ZINC000821177065    0.1000
     40 H40       -10.5267   -3.7855   56.8829 H       1  ZINC000821177065    0.4100
     41 H41       -10.6292   -2.4383   50.9191 H       1  ZINC000821177065    0.1000
     42 H42       -11.4200   -0.9966   51.6005 H       1  ZINC000821177065    0.1200
     43 H43       -10.1571    0.7070   52.6994 H       1  ZINC000821177065    0.1400
     44 H44        -7.9206    1.7219   53.0868 H       1  ZINC000821177065    0.1400
     45 H45        -5.8970    0.3617   52.6016 H       1  ZINC000821177065    0.1400
     46 H46        -6.1653   -1.9361   51.7569 H       1  ZINC000821177065    0.1600
     47 H47       -12.2101   -4.1817   52.0887 H       1  ZINC000821177065    0.1800
     48 H48       -12.4861   -4.9700   54.5763 H       1  ZINC000821177065    0.1700
@<TRIPOS>BOND
     1     1     2    2
     2     2     3   am
     3     2    13   am
     4     3     4    1
     5     3    26    1
     6     4     5    1
     7     4    27    1
     8     4    28    1
     9     5     6    1
    10     5     7    1
    11     5    10    1
    12     6    29    1
    13     7     9    1
    14     7     8    1
    15     7    30    1
    16     8     9    1
    17     8    31    1
    18     8    32    1
    19     9    33    1
    20     9    34    1
    21    10    12    1
    22    10    11    1
    23    10    35    1
    24    11    12    1
    25    11    36    1
    26    11    37    1
    27    12    38    1
    28    12    39    1
    29    13    14    1
    30    13    40    1
    31    14    25    1
    32    14    15    2
    33    15    16    1
    34    16    17    1
    35    16    24    1
    36    17    18    1
    37    17    41    1
    38    17    42    1
    39    18    23   ar
    40    18    19   ar
    41    19    20   ar
    42    19    43    1
    43    20    21   ar
    44    20    44    1
    45    21    22   ar
    46    21    45    1
    47    22    23   ar
    48    22    46    1
    49    24    25    2
    50    24    47    1
    51    25    48    1
@<TRIPOS>SUBSTRUCTURE
     1 ZINC000821177065        1 TEMP              0 ****  ****    0 ROOT


##########                                Name:    ZINC000501032137
##########                DOCK_Rotatable_Bonds:                  10
##########                         Heavy_Atoms:                  25
##########                    Molecular_Weight:             407.307
##########                DOCK_Rotatable_Bonds:                  10
##########                       Formal_Charge:           0.0099998
##########                     HBond_Acceptors:                   5
##########                        HBond_Donors:                   1
##########                         Heavy_Atoms:                  25
##########                          Grid_Score:          -31.144047
##########                     Grid_vdw_energy:          -30.342691
##########                      Grid_es_energy:           -0.801356
##########           Internal_energy_repulsive:           11.213112

@<TRIPOS>MOLECULE
ZINC000501032137
 48 50 1 0 0
SMALL
USER_CHARGES


@<TRIPOS>ATOM
      1 C1        -17.2316   -1.4792   51.5741 C.3     1  ZINC000501032137   -0.1500
      2 C2        -15.7618   -1.9000   51.5149 C.3     1  ZINC000501032137   -0.1200
      3 C3        -15.2714   -2.2399   52.9237 C.3     1  ZINC000501032137    0.0600
      4 O4        -13.9772   -2.8406   52.8456 O.3     1  ZINC000501032137   -0.3800
      5 C5        -12.9047   -1.9006   52.7551 C.3     1  ZINC000501032137    0.0500
      6 C6        -11.9021   -2.1608   53.8813 C.3     1  ZINC000501032137    0.1600
      7 H7        -11.7030   -3.2302   53.9505 H       1  ZINC000501032137    0.1000
      8 C8        -12.4831   -1.6633   55.2063 C.3     1  ZINC000501032137   -0.0900
      9 C9        -11.8091   -2.3768   56.3497 C.ar    1  ZINC000501032137   -0.0600
     10 C10       -12.0463   -3.7221   56.5607 C.ar    1  ZINC000501032137   -0.0900
     11 C11       -11.4281   -4.3773   57.6097 C.ar    1  ZINC000501032137   -0.1100
     12 C12       -10.5729   -3.6874   58.4477 C.ar    1  ZINC000501032137   -0.0900
     13 C13       -10.3352   -2.3409   58.2369 C.ar    1  ZINC000501032137   -0.0800
     14 Br14       -9.1650   -1.3962   59.3834 Br      1  ZINC000501032137   -0.0600
     15 C15       -10.9493   -1.6872   57.1841 C.ar    1  ZINC000501032137   -0.0800
     16 N16       -10.6535   -1.4490   53.5977 N.am    1  ZINC000501032137   -0.7100
     17 C17        -9.8054   -1.9220   52.6631 C.2     1  ZINC000501032137    0.6100
     18 O18       -10.0774   -2.9389   52.0542 O.2     1  ZINC000501032137   -0.5200
     19 C19        -8.5482   -1.2066   52.3790 C.2     1  ZINC000501032137   -0.0800
     20 C20        -8.2386    0.0645   52.7539 C.2     1  ZINC000501032137    0.0800
     21 C21        -9.1154    1.0073   53.5372 C.3     1  ZINC000501032137   -0.0800
     22 C22        -8.9505    2.5059   53.2771 C.3     1  ZINC000501032137   -0.1700
     23 C23       -10.1935    1.7732   52.7679 C.3     1  ZINC000501032137   -0.1500
     24 O24        -7.0034    0.3186   52.2934 O.3     1  ZINC000501032137   -0.2000
     25 C25        -6.5633   -0.7718   51.6498 C.2     1  ZINC000501032137    0.1800
     26 N26        -7.4764   -1.6950   51.6977 N.2     1  ZINC000501032137   -0.4600
     27 H27       -17.8277   -2.2972   51.9787 H       1  ZINC000501032137    0.0600
     28 H28       -17.3333   -0.6037   52.2153 H       1  ZINC000501032137    0.0600
     29 H29       -17.5810   -1.2370   50.5704 H       1  ZINC000501032137    0.0600
     30 H30       -15.6601   -2.7755   50.8736 H       1  ZINC000501032137    0.0700
     31 H31       -15.1657   -1.0820   51.1102 H       1  ZINC000501032137    0.0700
     32 H32       -15.2135   -1.3281   53.5181 H       1  ZINC000501032137    0.0500
     33 H33       -15.9672   -2.9357   53.3925 H       1  ZINC000501032137    0.0500
     34 H34       -12.4058   -2.0100   51.7922 H       1  ZINC000501032137    0.0700
     35 H35       -13.2996   -0.8888   52.8468 H       1  ZINC000501032137    0.0600
     36 H36       -12.3138   -0.5904   55.2972 H       1  ZINC000501032137    0.0900
     37 H37       -13.5538   -1.8657   55.2323 H       1  ZINC000501032137    0.0800
     38 H38       -12.7148   -4.2616   55.9062 H       1  ZINC000501032137    0.1200
     39 H39       -11.6140   -5.4284   57.7743 H       1  ZINC000501032137    0.1300
     40 H40       -10.0903   -4.1992   59.2672 H       1  ZINC000501032137    0.1300
     41 H41       -10.7638   -0.6361   57.0190 H       1  ZINC000501032137    0.1200
     42 H42       -10.4372   -0.6371   54.0825 H       1  ZINC000501032137    0.4100
     43 H43        -9.3492    0.6955   54.5552 H       1  ZINC000501032137    0.1500
     44 H44        -9.0757    3.1805   54.1241 H       1  ZINC000501032137    0.1100
     45 H45        -8.2081    2.8101   52.5394 H       1  ZINC000501032137    0.1000
     46 H46       -10.2686    1.5953   51.6951 H       1  ZINC000501032137    0.1000
     47 H47       -11.1363    1.9658   53.2798 H       1  ZINC000501032137    0.1100
     48 H48        -5.6004   -0.8689   51.1703 H       1  ZINC000501032137    0.2500
@<TRIPOS>BOND
     1     1     2    1
     2     1    27    1
     3     1    28    1
     4     1    29    1
     5     2     3    1
     6     2    30    1
     7     2    31    1
     8     3     4    1
     9     3    32    1
    10     3    33    1
    11     4     5    1
    12     5     6    1
    13     5    34    1
    14     5    35    1
    15     6     7    1
    16     6     8    1
    17     6    16    1
    18     8     9    1
    19     8    36    1
    20     8    37    1
    21     9    15   ar
    22     9    10   ar
    23    10    11   ar
    24    10    38    1
    25    11    12   ar
    26    11    39    1
    27    12    13   ar
    28    12    40    1
    29    13    14    1
    30    13    15   ar
    31    15    41    1
    32    16    17   am
    33    16    42    1
    34    17    18    2
    35    17    19    1
    36    19    26    1
    37    19    20    2
    38    20    21    1
    39    20    24    1
    40    21    23    1
    41    21    22    1
    42    21    43    1
    43    22    23    1
    44    22    44    1
    45    22    45    1
    46    23    46    1
    47    23    47    1
    48    24    25    1
    49    25    26    2
    50    25    48    1
@<TRIPOS>SUBSTRUCTURE
     1 ZINC000501032137        1 TEMP              0 ****  ****    0 ROOT


##########                                Name:    ZINC001039825450
##########                DOCK_Rotatable_Bonds:                   8
##########                         Heavy_Atoms:                  24
##########                    Molecular_Weight:             337.339
##########                DOCK_Rotatable_Bonds:                   8
##########                       Formal_Charge:           0.0100001
##########                     HBond_Acceptors:                  11
##########                        HBond_Donors:                   4
##########                         Heavy_Atoms:                  24
##########                          Grid_Score:          -31.138674
##########                     Grid_vdw_energy:          -29.584290
##########                      Grid_es_energy:           -1.554384
##########           Internal_energy_repulsive:            8.618642

@<TRIPOS>MOLECULE
ZINC001039825450
 43 45 1 0 0
SMALL
USER_CHARGES


@<TRIPOS>ATOM
      1 O1        -10.9131   -4.3312   58.1499 O.2     1  ZINC001039825450   -0.5100
      2 C2        -10.8150   -3.3747   57.4107 C.2     1  ZINC001039825450    0.5000
      3 C3        -11.0865   -3.5306   55.9366 C.3     1  ZINC001039825450    0.1300
      4 N4        -12.3902   -4.1708   55.7452 N.pl3   1  ZINC001039825450   -0.1500
      5 N5        -12.8466   -5.1299   56.4701 N.2     1  ZINC001039825450   -0.2800
      6 C6        -14.0371   -5.4643   56.0260 C.2     1  ZINC001039825450   -0.0200
      7 C7        -14.2928   -4.6198   54.9434 C.2     1  ZINC001039825450   -0.0200
      8 N8        -13.2365   -3.8464   54.8328 N.2     1  ZINC001039825450   -0.2800
      9 N9        -10.4686   -2.1710   57.9084 N.am    1  ZINC001039825450   -0.7300
     10 C10       -10.2047   -2.0195   59.3414 C.3     1  ZINC001039825450    0.1000
     11 C11        -9.3351   -0.7818   59.5717 C.3     1  ZINC001039825450    0.1100
     12 O12        -8.1939   -0.8008   58.7118 O.3     1  ZINC001039825450   -0.5400
     13 C13       -10.1611    0.5154   59.3656 C.3     1  ZINC001039825450   -0.1600
     14 C14        -9.3911    1.5196   60.2594 C.3     1  ZINC001039825450    0.1000
     15 N15        -8.9671    0.7330   61.4320 N.am    1  ZINC001039825450   -0.6100
     16 C16        -8.6853    1.2315   62.6520 C.2     1  ZINC001039825450    0.5200
     17 O17        -8.7738    2.4239   62.8551 O.2     1  ZINC001039825450   -0.5100
     18 C18        -8.2601    0.3072   63.7637 C.3     1  ZINC001039825450    0.1100
     19 H19        -7.7229   -0.5516   63.3616 H       1  ZINC001039825450    0.1200
     20 C20        -9.4824   -0.1537   64.5813 C.3     1  ZINC001039825450    0.1100
     21 N21        -9.2126    0.3538   65.9349 N.am    1  ZINC001039825450   -0.7400
     22 C22        -8.0411    1.0031   65.9361 C.2     1  ZINC001039825450    0.7100
     23 O23        -7.5733    1.5249   66.9296 O.2     1  ZINC001039825450   -0.5800
     24 N24        -7.4284    1.0245   64.7416 N.am    1  ZINC001039825450   -0.7200
     25 C25        -8.9031   -0.6854   61.0501 C.3     1  ZINC001039825450    0.1200
     26 H26       -11.0904   -2.5493   55.4620 H       1  ZINC001039825450    0.1400
     27 H27       -10.3090   -4.1484   55.4872 H       1  ZINC001039825450    0.1400
     28 H28       -14.6849   -6.2346   56.4176 H       1  ZINC001039825450    0.2000
     29 H29       -15.1790   -4.6030   54.3263 H       1  ZINC001039825450    0.2000
     30 H30       -10.3940   -1.4052   57.3178 H       1  ZINC001039825450    0.4000
     31 H31       -11.1484   -1.9047   59.8746 H       1  ZINC001039825450    0.0900
     32 H32        -9.6839   -2.9030   59.7105 H       1  ZINC001039825450    0.0900
     33 H33        -7.5697   -0.0796   58.8708 H       1  ZINC001039825450    0.3800
     34 H34       -10.1432    0.8282   58.3217 H       1  ZINC001039825450    0.0900
     35 H35       -11.1851    0.3863   59.7158 H       1  ZINC001039825450    0.0900
     36 H36        -8.5220    1.9097   59.7298 H       1  ZINC001039825450    0.0800
     37 H37       -10.0468    2.3344   60.5662 H       1  ZINC001039825450    0.0800
     38 H38       -10.3969    0.2859   64.1830 H       1  ZINC001039825450    0.0900
     39 H39        -9.5506   -1.2416   64.5871 H       1  ZINC001039825450    0.1000
     40 H40        -9.7912    0.2368   66.7046 H       1  ZINC001039825450    0.4400
     41 H41        -6.5755    1.4473   64.5550 H       1  ZINC001039825450    0.4400
     42 H42        -9.5816   -1.2679   61.6733 H       1  ZINC001039825450    0.0900
     43 H43        -7.8837   -1.0541   61.1632 H       1  ZINC001039825450    0.0900
@<TRIPOS>BOND
     1     1     2    2
     2     2     3    1
     3     2     9   am
     4     3     4    1
     5     3    26    1
     6     3    27    1
     7     4     8    1
     8     4     5    1
     9     5     6    2
    10     6     7    1
    11     6    28    1
    12     7     8    2
    13     7    29    1
    14     9    10    1
    15     9    30    1
    16    10    11    1
    17    10    31    1
    18    10    32    1
    19    11    25    1
    20    11    12    1
    21    11    13    1
    22    12    33    1
    23    13    14    1
    24    13    34    1
    25    13    35    1
    26    14    15    1
    27    14    36    1
    28    14    37    1
    29    15    16   am
    30    15    25    1
    31    16    17    2
    32    16    18    1
    33    18    19    1
    34    18    24    1
    35    18    20    1
    36    20    21    1
    37    20    38    1
    38    20    39    1
    39    21    22   am
    40    21    40    1
    41    22    23    2
    42    22    24   am
    43    24    41    1
    44    25    42    1
    45    25    43    1
@<TRIPOS>SUBSTRUCTURE
     1 ZINC001039825450        1 TEMP              0 ****  ****    0 ROOT


##########                                Name:    ZINC000469459940
##########                DOCK_Rotatable_Bonds:                   7
##########                         Heavy_Atoms:                  24
##########                    Molecular_Weight:             414.295
##########                DOCK_Rotatable_Bonds:                   7
##########                       Formal_Charge:          -0.0200002
##########                     HBond_Acceptors:                   6
##########                        HBond_Donors:                   1
##########                         Heavy_Atoms:                  24
##########                          Grid_Score:          -31.114464
##########                     Grid_vdw_energy:          -30.404528
##########                      Grid_es_energy:           -0.709935
##########           Internal_energy_repulsive:            5.120337

@<TRIPOS>MOLECULE
ZINC000469459940
 41 42 1 0 0
SMALL
USER_CHARGES


@<TRIPOS>ATOM
      1 C1        -14.1940   -5.0426   56.7985 C.3     1  ZINC000469459940   -0.1600
      2 C2        -12.9134   -4.3180   56.3792 C.3     1  ZINC000469459940   -0.1200
      3 C3        -13.0128   -3.9179   54.9058 C.3     1  ZINC000469459940   -0.1200
      4 C4        -11.7541   -3.1485   54.5002 C.3     1  ZINC000469459940   -0.6000
      5 S5        -11.9048   -2.6093   52.7748 S.o2    1  ZINC000469459940    2.4900
      6 O6        -11.6367   -3.6883   51.8899 O.2     1  ZINC000469459940   -0.9300
      7 O7        -13.0551   -1.7922   52.6063 O.2     1  ZINC000469459940   -0.9300
      8 C8        -10.5505   -1.5070   52.5388 C.ar    1  ZINC000469459940   -0.6400
      9 C9         -9.2538   -1.9855   52.6026 C.ar    1  ZINC000469459940   -0.0300
     10 C10        -8.1890   -1.1278   52.4191 C.ar    1  ZINC000469459940   -0.0800
     11 C11        -8.4221    0.2254   52.1682 C.ar    1  ZINC000469459940   -0.0900
     12 C12        -7.2860    1.1501   51.9701 C.2     1  ZINC000469459940    0.5600
     13 O13        -7.4182    2.1335   51.2677 O.2     1  ZINC000469459940   -0.5000
     14 N14        -6.1038    0.9030   52.5681 N.am    1  ZINC000469459940   -0.6700
     15 C15        -5.0287    1.7781   52.3805 C.ar    1  ZINC000469459940    0.1900
     16 C16        -4.9854    2.9837   53.0685 C.ar    1  ZINC000469459940   -0.1500
     17 C17        -3.9232    3.8470   52.8822 C.ar    1  ZINC000469459940   -0.0400
     18 C18        -2.9024    3.5126   52.0111 C.ar    1  ZINC000469459940   -0.1500
     19 Br19       -1.4501    4.6973   51.7592 Br      1  ZINC000469459940   -0.0200
     20 C20        -2.9421    2.3102   51.3227 C.ar    1  ZINC000469459940    0.1500
     21 F21        -1.9438    1.9857   50.4721 F       1  ZINC000469459940   -0.1200
     22 C22        -4.0005    1.4401   51.5105 C.ar    1  ZINC000469459940   -0.1500
     23 C23        -9.7328    0.7015   52.1046 C.ar    1  ZINC000469459940   -0.1100
     24 C24       -10.7886   -0.1679   52.2849 C.ar    1  ZINC000469459940   -0.0300
     25 H25       -15.0486   -4.3805   56.6586 H       1  ZINC000469459940    0.0600
     26 H26       -14.3226   -5.9360   56.1873 H       1  ZINC000469459940    0.0600
     27 H27       -14.1232   -5.3276   57.8482 H       1  ZINC000469459940    0.0600
     28 H28       -12.7847   -3.4246   56.9904 H       1  ZINC000469459940    0.0700
     29 H29       -12.0589   -4.9800   56.5191 H       1  ZINC000469459940    0.0700
     30 H30       -13.1049   -4.8136   54.2915 H       1  ZINC000469459940    0.0800
     31 H31       -13.8884   -3.2854   54.7593 H       1  ZINC000469459940    0.0800
     32 H32       -11.6377   -2.2770   55.1444 H       1  ZINC000469459940    0.1400
     33 H33       -10.8833   -3.7958   54.6038 H       1  ZINC000469459940    0.1400
     34 H34        -9.0749   -3.0327   52.7968 H       1  ZINC000469459940    0.1500
     35 H35        -7.1774   -1.5024   52.4699 H       1  ZINC000469459940    0.1500
     36 H36        -5.9983    0.1183   53.1284 H       1  ZINC000469459940    0.4200
     37 H37        -5.7821    3.2465   53.7485 H       1  ZINC000469459940    0.1500
     38 H38        -3.8899    4.7845   53.4174 H       1  ZINC000469459940    0.1500
     39 H39        -4.0318    0.5030   50.9745 H       1  ZINC000469459940    0.1600
     40 H40        -9.9199    1.7474   51.9112 H       1  ZINC000469459940    0.1400
     41 H41       -11.8032    0.1991   52.2360 H       1  ZINC000469459940    0.1500
@<TRIPOS>BOND
     1     1     2    1
     2     1    25    1
     3     1    26    1
     4     1    27    1
     5     2     3    1
     6     2    28    1
     7     2    29    1
     8     3     4    1
     9     3    30    1
    10     3    31    1
    11     4     5    1
    12     4    32    1
    13     4    33    1
    14     5     6    2
    15     5     7    2
    16     5     8    1
    17     8    24   ar
    18     8     9   ar
    19     9    10   ar
    20     9    34    1
    21    10    11   ar
    22    10    35    1
    23    11    12    1
    24    11    23   ar
    25    12    13    2
    26    12    14   am
    27    14    15    1
    28    14    36    1
    29    15    22   ar
    30    15    16   ar
    31    16    17   ar
    32    16    37    1
    33    17    18   ar
    34    17    38    1
    35    18    19    1
    36    18    20   ar
    37    20    21    1
    38    20    22   ar
    39    22    39    1
    40    23    24   ar
    41    23    40    1
    42    24    41    1
@<TRIPOS>SUBSTRUCTURE
     1 ZINC000469459940        1 TEMP              0 ****  ****    0 ROOT


##########                                Name:    ZINC000439870054
##########                DOCK_Rotatable_Bonds:                   5
##########                         Heavy_Atoms:                  27
##########                    Molecular_Weight:             421.974
##########                DOCK_Rotatable_Bonds:                   5
##########                       Formal_Charge:           0.0200003
##########                     HBond_Acceptors:                   9
##########                        HBond_Donors:                   0
##########                         Heavy_Atoms:                  27
##########                          Grid_Score:          -31.092070
##########                     Grid_vdw_energy:          -31.624769
##########                      Grid_es_energy:            0.532700
##########           Internal_energy_repulsive:           64.744598

@<TRIPOS>MOLECULE
ZINC000439870054
 47 50 1 0 0
SMALL
USER_CHARGES


@<TRIPOS>ATOM
      1 C1        -12.1386   -4.3162   56.9405 C.3     1  ZINC000439870054   -0.1400
      2 C2        -13.0344   -4.7228   55.7688 C.3     1  ZINC000439870054    0.0000
      3 C3        -14.3953   -5.1769   56.3008 C.3     1  ZINC000439870054   -0.1400
      4 C4        -13.2228   -3.5447   54.8480 C.2     1  ZINC000439870054    0.1900
      5 N5        -14.2961   -2.8042   54.7432 N.2     1  ZINC000439870054   -0.2900
      6 N6        -14.1076   -1.8870   53.8570 N.2     1  ZINC000439870054   -0.2700
      7 C7        -12.9146   -2.0047   53.3613 C.2     1  ZINC000439870054    0.1600
      8 C8        -12.2508   -1.1712   52.2918 C.3     1  ZINC000439870054    0.2400
      9 H9        -12.7025   -1.3814   51.3223 H       1  ZINC000439870054    0.1100
     10 C10       -12.3957    0.3154   52.6235 C.3     1  ZINC000439870054   -0.1300
     11 N11       -10.8247   -1.5485   52.2753 N.am    1  ZINC000439870054   -0.6300
     12 C12        -9.8609   -0.6113   52.1802 C.2     1  ZINC000439870054    0.5300
     13 O13       -10.1607    0.5616   52.1068 O.2     1  ZINC000439870054   -0.4900
     14 C14        -8.4107   -1.0207   52.1653 C.3     1  ZINC000439870054   -0.0700
     15 C15        -7.5435    0.1944   52.3722 C.2     1  ZINC000439870054    0.0900
     16 C16        -6.5547    0.5115   51.5314 C.2     1  ZINC000439870054   -0.2400
     17 S17        -5.7849    1.9859   52.1142 S.3     1  ZINC000439870054    0.1300
     18 C18        -6.9055    2.0288   53.4730 C.2     1  ZINC000439870054    0.1400
     19 C19        -6.9273    3.0517   54.5299 C.2     1  ZINC000439870054   -0.1300
     20 C20        -7.9372    3.2472   55.4055 C.2     1  ZINC000439870054   -0.1000
     21 C21        -7.7279    4.2685   56.3067 C.2     1  ZINC000439870054   -0.1200
     22 C22        -6.5594    4.9086   56.1770 C.2     1  ZINC000439870054   -0.1500
     23 Cl23       -6.0293    6.2304   57.1698 Cl      1  ZINC000439870054    0.0000
     24 S24        -5.6392    4.2046   54.8542 S.3     1  ZINC000439870054    0.2500
     25 N25        -7.7167    1.0101   53.3877 N.2     1  ZINC000439870054   -0.4400
     26 C26       -10.4847   -2.9766   52.3660 C.3     1  ZINC000439870054    0.0900
     27 C27       -10.9559   -3.5233   53.7187 C.3     1  ZINC000439870054    0.0900
     28 N28       -12.3150   -3.0524   53.9818 N.pl3   1  ZINC000439870054   -0.4700
     29 H29       -12.0024   -5.1683   57.6065 H       1  ZINC000439870054    0.0700
     30 H30       -11.1691   -3.9926   56.5615 H       1  ZINC000439870054    0.0500
     31 H31       -12.6060   -3.4980   57.4883 H       1  ZINC000439870054    0.0700
     32 H32       -12.5671   -5.5410   55.2209 H       1  ZINC000439870054    0.0800
     33 H33       -15.0335   -5.4666   55.4660 H       1  ZINC000439870054    0.0500
     34 H34       -14.2590   -6.0290   56.9667 H       1  ZINC000439870054    0.0700
     35 H35       -14.8626   -4.3587   56.8486 H       1  ZINC000439870054    0.0700
     36 H36       -11.8018    0.5501   53.5069 H       1  ZINC000439870054    0.0600
     37 H37       -12.0450    0.9116   51.7810 H       1  ZINC000439870054    0.0900
     38 H38       -13.4435    0.5437   52.8189 H       1  ZINC000439870054    0.0700
     39 H39        -8.2274   -1.7383   52.9651 H       1  ZINC000439870054    0.1100
     40 H40        -8.1722   -1.4780   51.2050 H       1  ZINC000439870054    0.1200
     41 H41        -6.2750   -0.0412   50.6467 H       1  ZINC000439870054    0.1800
     42 H42        -8.8375    2.6507   55.3994 H       1  ZINC000439870054    0.1500
     43 H43        -8.4533    4.5333   57.0618 H       1  ZINC000439870054    0.1600
     44 H44       -10.9794   -3.5203   51.5612 H       1  ZINC000439870054    0.0900
     45 H45        -9.4052   -3.0998   52.2796 H       1  ZINC000439870054    0.1200
     46 H46       -10.9436   -4.6130   53.6954 H       1  ZINC000439870054    0.1100
     47 H47       -10.2920   -3.1676   54.5067 H       1  ZINC000439870054    0.0900
@<TRIPOS>BOND
     1     1     2    1
     2     1    29    1
     3     1    30    1
     4     1    31    1
     5     2     3    1
     6     2     4    1
     7     2    32    1
     8     3    33    1
     9     3    34    1
    10     3    35    1
    11     4    28    1
    12     4     5    2
    13     5     6    1
    14     6     7    2
    15     7    28    1
    16     7     8    1
    17     8     9    1
    18     8    10    1
    19     8    11    1
    20    10    36    1
    21    10    37    1
    22    10    38    1
    23    11    12   am
    24    11    26    1
    25    12    13    2
    26    12    14    1
    27    14    15    1
    28    14    39    1
    29    14    40    1
    30    15    25    1
    31    15    16    2
    32    16    17    1
    33    16    41    1
    34    17    18    1
    35    18    19    1
    36    18    25    2
    37    19    24    1
    38    19    20    2
    39    20    21    1
    40    20    42    1
    41    21    22    2
    42    21    43    1
    43    22    23    1
    44    22    24    1
    45    26    27    1
    46    26    44    1
    47    26    45    1
    48    27    28    1
    49    27    46    1
    50    27    47    1
@<TRIPOS>SUBSTRUCTURE
     1 ZINC000439870054        1 TEMP              0 ****  ****    0 ROOT


##########                                Name:    ZINC001707162141
##########                DOCK_Rotatable_Bonds:                   9
##########                         Heavy_Atoms:                  25
##########                    Molecular_Weight:               344.5
##########                DOCK_Rotatable_Bonds:                   9
##########                       Formal_Charge:          -0.0299999
##########                     HBond_Acceptors:                   5
##########                        HBond_Donors:                   1
##########                         Heavy_Atoms:                  25
##########                          Grid_Score:          -31.061571
##########                     Grid_vdw_energy:          -31.496315
##########                      Grid_es_energy:            0.434744
##########           Internal_energy_repulsive:           85.094322

@<TRIPOS>MOLECULE
ZINC001707162141
 57 59 1 0 0
SMALL
USER_CHARGES


@<TRIPOS>ATOM
      1 C1         -3.2038    4.2694   53.0545 C.3     1  ZINC001707162141   -0.1800
      2 C2         -3.2189    3.0849   52.0863 C.3     1  ZINC001707162141    0.1700
      3 H3         -3.1666    3.4526   51.0614 H       1  ZINC001707162141    0.1000
      4 N4         -2.0639    2.2178   52.3550 N.3     1  ZINC001707162141   -0.6400
      5 C5         -1.3984    1.8253   51.1055 C.3     1  ZINC001707162141    0.0700
      6 C6          0.0959    1.6240   51.3651 C.3     1  ZINC001707162141    0.1500
      7 H7          0.2398    0.7727   52.0305 H       1  ZINC001707162141    0.0700
      8 C8          0.6801    2.8861   52.0074 C.3     1  ZINC001707162141   -0.1200
      9 C9          2.1972    2.7324   52.1367 C.3     1  ZINC001707162141   -0.0900
     10 H10         2.4229    1.8536   52.7409 H       1  ZINC001707162141    0.0700
     11 C11         2.7802    3.9768   52.8095 C.3     1  ZINC001707162141   -0.1500
     12 C12         2.8154    2.5676   50.7465 C.3     1  ZINC001707162141   -0.1300
     13 C13         2.2553    1.3018   50.0899 C.3     1  ZINC001707162141    0.1100
     14 N14         0.7880    1.3771   50.0929 N.am    1  ZINC001707162141   -0.6100
     15 C15         0.0902    1.2231   48.9501 C.2     1  ZINC001707162141    0.5100
     16 O16        -1.1208    1.2874   48.9657 O.2     1  ZINC001707162141   -0.4800
     17 C17         0.8147    0.9710   47.6529 C.3     1  ZINC001707162141   -0.1400
     18 C18        -0.2038    0.8155   46.5219 C.3     1  ZINC001707162141   -0.0900
     19 C19        -0.6738    2.1981   46.0651 C.3     1  ZINC001707162141   -0.0900
     20 C20         0.5058    2.9649   45.4640 C.3     1  ZINC001707162141   -0.1500
     21 C21         1.0017    4.2014   46.2164 C.3     1  ZINC001707162141   -0.1800
     22 C22         0.2292    4.3622   44.9056 C.3     1  ZINC001707162141   -0.1800
     23 C23        -4.4912    2.2991   52.2736 C.ar    1  ZINC001707162141    0.3500
     24 N24        -4.6254    1.1401   51.6608 N.ar    1  ZINC001707162141   -0.5000
     25 C25        -5.7260    0.4198   51.8061 C.ar    1  ZINC001707162141    0.1500
     26 C26        -6.7485    0.9051   52.6060 C.ar    1  ZINC001707162141   -0.2400
     27 C27        -6.5728    2.1304   53.2295 C.ar    1  ZINC001707162141    0.1500
     28 N28        -5.4422    2.7919   53.0416 N.ar    1  ZINC001707162141   -0.5200
     29 H29        -2.2836    4.8376   52.9190 H       1  ZINC001707162141    0.0600
     30 H30        -4.0608    4.9126   52.8552 H       1  ZINC001707162141    0.0600
     31 H31        -3.2561    3.9015   54.0793 H       1  ZINC001707162141    0.0600
     32 H32        -1.4151    2.6648   52.9852 H       1  ZINC001707162141    0.3300
     33 H33        -1.8322    0.8947   50.7397 H       1  ZINC001707162141    0.1000
     34 H34        -1.5353    2.6080   50.3595 H       1  ZINC001707162141    0.0200
     35 H35         0.4539    3.7502   51.3828 H       1  ZINC001707162141    0.0700
     36 H36         0.2431    3.0268   52.9960 H       1  ZINC001707162141    0.0700
     37 H37         2.5551    4.8556   52.2051 H       1  ZINC001707162141    0.0500
     38 H38         2.3401    4.0943   53.7997 H       1  ZINC001707162141    0.0600
     39 H39         3.8606    3.8669   52.9027 H       1  ZINC001707162141    0.0600
     40 H40         3.8981    2.4816   50.8376 H       1  ZINC001707162141    0.0700
     41 H41         2.5691    3.4348   50.1337 H       1  ZINC001707162141    0.0700
     42 H42         2.5774    0.4254   50.6521 H       1  ZINC001707162141    0.0600
     43 H43         2.6156    1.2327   49.0634 H       1  ZINC001707162141    0.0800
     44 H44         1.4736    1.8116   47.4355 H       1  ZINC001707162141    0.0800
     45 H45         1.4053    0.0589   47.7380 H       1  ZINC001707162141    0.0800
     46 H46         0.2600    0.2944   45.6843 H       1  ZINC001707162141    0.0700
     47 H47        -1.0584    0.2408   46.8789 H       1  ZINC001707162141    0.0700
     48 H48        -1.4553    2.0862   45.3135 H       1  ZINC001707162141    0.0600
     49 H49        -1.0676    2.7486   46.9196 H       1  ZINC001707162141    0.0600
     50 H50         1.2498    2.3559   44.9504 H       1  ZINC001707162141    0.1000
     51 H51         0.4875    4.4685   47.1396 H       1  ZINC001707162141    0.0900
     52 H52         2.0722    4.4060   46.1980 H       1  ZINC001707162141    0.0900
     53 H53         0.7913    4.6726   44.0248 H       1  ZINC001707162141    0.0900
     54 H54        -0.7932    4.7352   44.9665 H       1  ZINC001707162141    0.0900
     55 H55        -5.8281   -0.5310   51.3044 H       1  ZINC001707162141    0.1600
     56 H56        -7.6602    0.3419   52.7406 H       1  ZINC001707162141    0.1400
     57 H57        -7.3483    2.5399   53.8599 H       1  ZINC001707162141    0.1600
@<TRIPOS>BOND
     1     1     2    1
     2     1    29    1
     3     1    30    1
     4     1    31    1
     5     2     3    1
     6     2     4    1
     7     2    23    1
     8     4     5    1
     9     4    32    1
    10     5     6    1
    11     5    33    1
    12     5    34    1
    13     6     7    1
    14     6    14    1
    15     6     8    1
    16     8     9    1
    17     8    35    1
    18     8    36    1
    19     9    10    1
    20     9    11    1
    21     9    12    1
    22    11    37    1
    23    11    38    1
    24    11    39    1
    25    12    13    1
    26    12    40    1
    27    12    41    1
    28    13    14    1
    29    13    42    1
    30    13    43    1
    31    14    15   am
    32    15    16    2
    33    15    17    1
    34    17    18    1
    35    17    44    1
    36    17    45    1
    37    18    19    1
    38    18    46    1
    39    18    47    1
    40    19    20    1
    41    19    48    1
    42    19    49    1
    43    20    22    1
    44    20    21    1
    45    20    50    1
    46    21    22    1
    47    21    51    1
    48    21    52    1
    49    22    53    1
    50    22    54    1
    51    23    28   ar
    52    23    24   ar
    53    24    25   ar
    54    25    26   ar
    55    25    55    1
    56    26    27   ar
    57    26    56    1
    58    27    28   ar
    59    27    57    1
@<TRIPOS>SUBSTRUCTURE
     1 ZINC001707162141        1 TEMP              0 ****  ****    0 ROOT


##########                                Name:    ZINC000265724350
##########                DOCK_Rotatable_Bonds:                   8
##########                         Heavy_Atoms:                  23
##########                    Molecular_Weight:              345.42
##########                DOCK_Rotatable_Bonds:                   8
##########                       Formal_Charge:          -0.0300002
##########                     HBond_Acceptors:                   9
##########                        HBond_Donors:                   2
##########                         Heavy_Atoms:                  23
##########                          Grid_Score:          -31.060337
##########                     Grid_vdw_energy:          -31.775629
##########                      Grid_es_energy:            0.715293
##########           Internal_energy_repulsive:            6.061413

@<TRIPOS>MOLECULE
ZINC000265724350
 46 47 1 0 0
SMALL
USER_CHARGES


@<TRIPOS>ATOM
      1 C1        -10.7454   -1.7324   51.9775 C.3     1  ZINC000265724350    0.0800
      2 N2         -9.3713   -1.2297   51.9038 N.am    1  ZINC000265724350   -1.1100
      3 S3         -8.9597    0.1724   52.6828 S.o2    1  ZINC000265724350    2.7200
      4 O4         -9.6659    1.2174   52.0281 O.2     1  ZINC000265724350   -0.9300
      5 O5         -9.0770   -0.0922   54.0740 O.2     1  ZINC000265724350   -0.9300
      6 C6         -7.2488    0.4582   52.3733 C.2     1  ZINC000265724350   -0.5600
      7 C7         -6.3593   -0.4690   51.9545 C.2     1  ZINC000265724350   -0.0900
      8 C8         -5.1178    0.1747   51.8338 C.2     1  ZINC000265724350   -0.1400
      9 C9         -5.3151    1.4782   52.1895 C.2     1  ZINC000265724350   -0.0200
     10 C10        -4.2923    2.5289   52.2146 C.2     1  ZINC000265724350    0.6000
     11 O11        -4.5549    3.6227   52.6792 O.2     1  ZINC000265724350   -0.5000
     12 N12        -3.0616    2.2833   51.7233 N.am    1  ZINC000265724350   -0.7100
     13 C13        -2.0394    3.3325   51.7500 C.3     1  ZINC000265724350    0.1200
     14 C14        -1.7235    3.7732   50.3193 C.3     1  ZINC000265724350   -0.1100
     15 H15        -2.5644    3.5296   49.6700 H       1  ZINC000265724350    0.0800
     16 C16        -1.4795    5.2833   50.2931 C.3     1  ZINC000265724350   -0.1400
     17 C17        -0.4711    3.0456   49.8264 C.3     1  ZINC000265724350    0.0600
     18 N18        -0.7975    2.2697   48.6225 N.3     1  ZINC000265724350   -0.5300
     19 C19        -0.1910    0.9316   48.6775 C.3     1  ZINC000265724350    0.0100
     20 C20        -0.6047    0.1383   47.4352 C.3     1  ZINC000265724350    0.0600
     21 O21        -0.2169    0.8607   46.2634 O.3     1  ZINC000265724350   -0.3900
     22 C22        -0.7899    2.1682   46.1772 C.3     1  ZINC000265724350    0.0600
     23 C23        -0.3782    2.9821   47.4067 C.3     1  ZINC000265724350    0.0200
     24 O24        -6.6170    1.6313   52.5085 O.3     1  ZINC000265724350   -0.1100
     25 H25       -10.8246   -2.6582   51.4076 H       1  ZINC000265724350    0.0900
     26 H26       -11.0073   -1.9229   53.0183 H       1  ZINC000265724350    0.0600
     27 H27       -11.4267   -0.9902   51.5614 H       1  ZINC000265724350    0.0700
     28 H28        -8.7026   -1.7181   51.3985 H       1  ZINC000265724350    0.4200
     29 H29        -6.5649   -1.5094   51.7511 H       1  ZINC000265724350    0.1800
     30 H30        -4.1868   -0.2741   51.5205 H       1  ZINC000265724350    0.1700
     31 H31        -2.8527    1.4120   51.3519 H       1  ZINC000265724350    0.4100
     32 H32        -2.4086    4.1852   52.3197 H       1  ZINC000265724350    0.0800
     33 H33        -1.1346    2.9463   52.2194 H       1  ZINC000265724350    0.0700
     34 H34        -2.3717    5.8018   50.6442 H       1  ZINC000265724350    0.0500
     35 H35        -0.6385    5.5269   50.9424 H       1  ZINC000265724350    0.0600
     36 H36        -1.2544    5.5973   49.2738 H       1  ZINC000265724350    0.0700
     37 H37         0.3034    3.7750   49.5896 H       1  ZINC000265724350    0.0800
     38 H38        -0.1112    2.3734   50.6054 H       1  ZINC000265724350    0.0400
     39 H39         0.8946    1.0249   48.7050 H       1  ZINC000265724350    0.0400
     40 H40        -0.5351    0.4125   49.5721 H       1  ZINC000265724350    0.0900
     41 H41        -0.1116   -0.8338   47.4433 H       1  ZINC000265724350    0.1000
     42 H42        -1.6857   -0.0013   47.4357 H       1  ZINC000265724350    0.0600
     43 H43        -0.4309    2.6642   45.2755 H       1  ZINC000265724350    0.1000
     44 H44        -1.8764    2.0877   46.1410 H       1  ZINC000265724350    0.0600
     45 H45        -0.8589    3.9598   47.3738 H       1  ZINC000265724350    0.0900
     46 H46         0.7045    3.1081   47.4140 H       1  ZINC000265724350    0.0400
@<TRIPOS>BOND
     1     1     2    1
     2     1    25    1
     3     1    26    1
     4     1    27    1
     5     2     3   am
     6     2    28    1
     7     3     4    2
     8     3     5    2
     9     3     6    1
    10     6    24    1
    11     6     7    2
    12     7     8    1
    13     7    29    1
    14     8     9    2
    15     8    30    1
    16     9    10    1
    17     9    24    1
    18    10    11    2
    19    10    12   am
    20    12    13    1
    21    12    31    1
    22    13    14    1
    23    13    32    1
    24    13    33    1
    25    14    15    1
    26    14    16    1
    27    14    17    1
    28    16    34    1
    29    16    35    1
    30    16    36    1
    31    17    18    1
    32    17    37    1
    33    17    38    1
    34    18    23    1
    35    18    19    1
    36    19    20    1
    37    19    39    1
    38    19    40    1
    39    20    21    1
    40    20    41    1
    41    20    42    1
    42    21    22    1
    43    22    23    1
    44    22    43    1
    45    22    44    1
    46    23    45    1
    47    23    46    1
@<TRIPOS>SUBSTRUCTURE
     1 ZINC000265724350        1 TEMP              0 ****  ****    0 ROOT


##########                                Name:    ZINC000465392830
##########                DOCK_Rotatable_Bonds:                   8
##########                         Heavy_Atoms:                  29
##########                    Molecular_Weight:             419.588
##########                DOCK_Rotatable_Bonds:                   8
##########                       Formal_Charge:           0.0199996
##########                     HBond_Acceptors:                   7
##########                        HBond_Donors:                   0
##########                         Heavy_Atoms:                  29
##########                          Grid_Score:          -31.058861
##########                     Grid_vdw_energy:          -29.633762
##########                      Grid_es_energy:           -1.425098
##########           Internal_energy_repulsive:           28.637447

@<TRIPOS>MOLECULE
ZINC000465392830
 62 64 1 0 0
SMALL
USER_CHARGES


@<TRIPOS>ATOM
      1 C1        -17.0696    1.0427   62.6501 C.3     1  ZINC000465392830    0.0400
      2 O2        -16.8498   -0.3576   62.9653 O.3     1  ZINC000465392830   -0.3600
      3 C3        -15.8041   -0.9582   62.3758 C.2     1  ZINC000465392830    0.4600
      4 O4        -15.6188   -2.1416   62.5344 O.2     1  ZINC000465392830   -0.4900
      5 C5        -14.8611   -0.1563   61.5162 C.3     1  ZINC000465392830    0.1500
      6 H6        -15.4045    0.6488   61.0216 H       1  ZINC000465392830    0.1100
      7 C7        -13.7292    0.4308   62.3854 C.3     1  ZINC000465392830   -0.1100
      8 C8        -12.4841    0.3006   61.4687 C.3     1  ZINC000465392830   -0.0900
      9 H9        -12.4291    1.1307   60.7643 H       1  ZINC000465392830    0.1000
     10 C10       -11.2013    0.2022   62.2968 C.3     1  ZINC000465392830   -0.0800
     11 C11       -10.0198   -0.0998   61.3729 C.3     1  ZINC000465392830   -0.1200
     12 C12        -8.7370   -0.1983   62.2009 C.3     1  ZINC000465392830   -0.1200
     13 C13        -8.4933    1.1282   62.9235 C.3     1  ZINC000465392830   -0.1200
     14 C14        -9.6749    1.4303   63.8474 C.3     1  ZINC000465392830   -0.1200
     15 C15       -10.9576    1.5287   63.0193 C.3     1  ZINC000465392830   -0.1200
     16 C16       -12.7759   -1.0320   60.7350 C.3     1  ZINC000465392830    0.1000
     17 N17       -14.2364   -1.0289   60.5112 N.am    1  ZINC000465392830   -0.6100
     18 C18       -14.8851   -1.7143   59.5490 C.2     1  ZINC000465392830    0.5400
     19 O19       -16.0923   -1.6394   59.4602 O.2     1  ZINC000465392830   -0.5300
     20 C20       -14.1103   -2.5736   58.5834 C.3     1  ZINC000465392830   -0.1300
     21 C21       -14.9945   -2.9158   57.3825 C.3     1  ZINC000465392830   -0.0600
     22 C22       -14.1349   -3.0752   56.1550 C.ar    1  ZINC000465392830   -0.2000
     23 C23       -13.6322   -4.3171   55.7991 C.ar    1  ZINC000465392830    0.2000
     24 C24       -13.9386   -5.5322   56.6362 C.3     1  ZINC000465392830   -0.1100
     25 N25       -12.8809   -4.4227   54.7158 N.ar    1  ZINC000465392830   -0.5000
     26 C26       -12.6076   -3.3584   53.9744 C.ar    1  ZINC000465392830    0.3000
     27 S27       -11.6025   -3.5448   52.5393 S.3     1  ZINC000465392830    0.0000
     28 C28       -10.8622   -1.8951   52.4576 C.3     1  ZINC000465392830   -0.1400
     29 N29       -13.0730   -2.1573   54.2870 N.ar    1  ZINC000465392830   -0.5300
     30 C30       -13.8345   -1.9841   55.3544 C.ar    1  ZINC000465392830    0.2000
     31 C31       -14.3596   -0.6152   55.7027 C.3     1  ZINC000465392830   -0.1100
     32 H32       -16.1948    1.6229   62.9439 H       1  ZINC000465392830    0.0600
     33 H33       -17.2349    1.1522   61.5783 H       1  ZINC000465392830    0.0600
     34 H34       -17.9438    1.4041   63.1914 H       1  ZINC000465392830    0.1000
     35 H35       -13.9269    1.4764   62.6212 H       1  ZINC000465392830    0.1000
     36 H36       -13.6000   -0.1534   63.2965 H       1  ZINC000465392830    0.0800
     37 H37       -11.3028   -0.5977   63.0303 H       1  ZINC000465392830    0.0800
     38 H38       -10.1934   -1.0448   60.8582 H       1  ZINC000465392830    0.0600
     39 H39        -9.9182    0.7001   60.6395 H       1  ZINC000465392830    0.0700
     40 H40        -8.8385   -0.9982   62.9345 H       1  ZINC000465392830    0.0600
     41 H41        -7.8952   -0.4135   61.5427 H       1  ZINC000465392830    0.0600
     42 H42        -7.5795    1.0581   63.5135 H       1  ZINC000465392830    0.0600
     43 H43        -8.3918    1.9281   62.1900 H       1  ZINC000465392830    0.0600
     44 H44        -9.7764    0.6304   64.5808 H       1  ZINC000465392830    0.0600
     45 H45        -9.5013    2.3753   64.3621 H       1  ZINC000465392830    0.0600
     46 H46       -10.8561    2.3287   62.2858 H       1  ZINC000465392830    0.0700
     47 H47       -11.7994    1.7439   63.6775 H       1  ZINC000465392830    0.0600
     48 H48       -12.2477   -1.0641   59.7821 H       1  ZINC000465392830    0.0900
     49 H49       -12.4883   -1.8789   61.3580 H       1  ZINC000465392830    0.0800
     50 H50       -13.2280   -2.0320   58.2423 H       1  ZINC000465392830    0.1000
     51 H51       -13.8024   -3.4929   59.0815 H       1  ZINC000465392830    0.1000
     52 H52       -15.5268   -3.8470   57.5768 H       1  ZINC000465392830    0.0900
     53 H53       -15.7139   -2.1131   57.2206 H       1  ZINC000465392830    0.0900
     54 H54       -14.8520   -6.0029   56.2726 H       1  ZINC000465392830    0.0900
     55 H55       -13.1123   -6.2397   56.5656 H       1  ZINC000465392830    0.0900
     56 H56       -14.0729   -5.2329   57.6756 H       1  ZINC000465392830    0.0900
     57 H57       -11.6495   -1.1484   52.3531 H       1  ZINC000465392830    0.0900
     58 H58       -10.2991   -1.7039   53.3710 H       1  ZINC000465392830    0.0900
     59 H59       -10.1925   -1.8395   51.5994 H       1  ZINC000465392830    0.1100
     60 H60       -15.3236   -0.4617   55.2179 H       1  ZINC000465392830    0.0900
     61 H61       -14.4796   -0.5362   56.7832 H       1  ZINC000465392830    0.0900
     62 H62       -13.6553    0.1424   55.3590 H       1  ZINC000465392830    0.0800
@<TRIPOS>BOND
     1     1     2    1
     2     1    32    1
     3     1    33    1
     4     1    34    1
     5     2     3    1
     6     3     4    2
     7     3     5    1
     8     5     6    1
     9     5    17    1
    10     5     7    1
    11     7     8    1
    12     7    35    1
    13     7    36    1
    14     8     9    1
    15     8    10    1
    16     8    16    1
    17    10    15    1
    18    10    11    1
    19    10    37    1
    20    11    12    1
    21    11    38    1
    22    11    39    1
    23    12    13    1
    24    12    40    1
    25    12    41    1
    26    13    14    1
    27    13    42    1
    28    13    43    1
    29    14    15    1
    30    14    44    1
    31    14    45    1
    32    15    46    1
    33    15    47    1
    34    16    17    1
    35    16    48    1
    36    16    49    1
    37    17    18   am
    38    18    19    2
    39    18    20    1
    40    20    21    1
    41    20    50    1
    42    20    51    1
    43    21    22    1
    44    21    52    1
    45    21    53    1
    46    22    30   ar
    47    22    23   ar
    48    23    24    1
    49    23    25   ar
    50    24    54    1
    51    24    55    1
    52    24    56    1
    53    25    26   ar
    54    26    27    1
    55    26    29   ar
    56    27    28    1
    57    28    57    1
    58    28    58    1
    59    28    59    1
    60    29    30   ar
    61    30    31    1
    62    31    60    1
    63    31    61    1
    64    31    62    1
@<TRIPOS>SUBSTRUCTURE
     1 ZINC000465392830        1 TEMP              0 ****  ****    0 ROOT


##########                                Name:    ZINC000459459628
##########                DOCK_Rotatable_Bonds:                   8
##########                         Heavy_Atoms:                  27
##########                    Molecular_Weight:             377.366
##########                DOCK_Rotatable_Bonds:                   8
##########                       Formal_Charge:         -0.00999984
##########                     HBond_Acceptors:                   8
##########                        HBond_Donors:                   1
##########                         Heavy_Atoms:                  27
##########                          Grid_Score:          -31.002258
##########                     Grid_vdw_energy:          -27.391550
##########                      Grid_es_energy:           -3.610707
##########           Internal_energy_repulsive:           15.686323

@<TRIPOS>MOLECULE
ZINC000459459628
 45 46 1 0 0
SMALL
USER_CHARGES


@<TRIPOS>ATOM
      1 C1          0.2562    0.4981   48.2188 C.3     1  ZINC000459459628   -0.1600
      2 C2         -0.1352    1.9047   48.6761 C.3     1  ZINC000459459628    0.1600
      3 H3         -0.9378    2.2826   48.0426 H       1  ZINC000459459628    0.1100
      4 C4          1.0776    2.8315   48.5700 C.3     1  ZINC000459459628   -0.0900
      5 C5          0.9058    3.7501   47.3878 C.ar    1  ZINC000459459628   -0.0500
      6 C6          0.3542    3.2706   46.2146 C.ar    1  ZINC000459459628   -0.1200
      7 C7          0.1961    4.1122   45.1291 C.ar    1  ZINC000459459628   -0.0900
      8 C8          0.5893    5.4340   45.2160 C.ar    1  ZINC000459459628   -0.1600
      9 C9          1.1415    5.9157   46.3910 C.ar    1  ZINC000459459628    0.1000
     10 F10         1.5263    7.2079   46.4770 F       1  ZINC000459459628   -0.1400
     11 C11         1.2945    5.0734   47.4789 C.ar    1  ZINC000459459628   -0.1500
     12 N12        -0.5926    1.8564   50.0671 N.am    1  ZINC000459459628   -0.6200
     13 C13         0.3838    1.8389   51.1591 C.3     1  ZINC000459459628    0.0700
     14 C14        -1.9117    1.8279   50.3420 C.2     1  ZINC000459459628    0.7100
     15 O15        -2.7222    1.8439   49.4358 O.2     1  ZINC000459459628   -0.5700
     16 N16        -2.3325    1.7818   51.6216 N.am    1  ZINC000459459628   -0.6800
     17 C17        -3.7046    1.7522   51.9076 C.ar    1  ZINC000459459628    0.1500
     18 C18        -4.4479    0.6235   51.6153 C.ar    1  ZINC000459459628   -0.0400
     19 C19        -5.8154    0.5980   51.9025 C.ar    1  ZINC000459459628   -0.0300
     20 C20        -6.5899   -0.5684   51.6023 C.1     1  ZINC000459459628    0.2600
     21 N21        -7.2044   -1.4937   51.3642 N.1     1  ZINC000459459628   -0.4100
     22 C22        -6.4250    1.7127   52.4834 C.ar    1  ZINC000459459628   -0.0500
     23 C23        -5.6784    2.8353   52.7720 C.ar    1  ZINC000459459628   -0.1700
     24 C24        -4.3196    2.8598   52.4927 C.ar    1  ZINC000459459628    0.1100
     25 O25        -3.5887    3.9682   52.7792 O.3     1  ZINC000459459628   -0.3200
     26 C26        -3.1547    4.1277   54.1313 C.3     1  ZINC000459459628    0.4100
     27 F27        -1.7657    4.2918   54.1590 F       1  ZINC000459459628   -0.1900
     28 F28        -3.7687    5.2548   54.6882 F       1  ZINC000459459628   -0.1900
     29 H29         1.0588    0.1203   48.8523 H       1  ZINC000459459628    0.0600
     30 H30        -0.6077   -0.1621   48.2945 H       1  ZINC000459459628    0.0600
     31 H31         0.5965    0.5341   47.1839 H       1  ZINC000459459628    0.0700
     32 H32         1.1630    3.4238   49.4810 H       1  ZINC000459459628    0.0800
     33 H33         1.9802    2.2349   48.4385 H       1  ZINC000459459628    0.0900
     34 H34         0.0470    2.2375   46.1457 H       1  ZINC000459459628    0.1300
     35 H35        -0.2347    3.7362   44.2129 H       1  ZINC000459459628    0.1300
     36 H36         0.4662    6.0911   44.3677 H       1  ZINC000459459628    0.1300
     37 H37         1.7247    5.4481   48.3959 H       1  ZINC000459459628    0.1300
     38 H38         0.6102    2.8617   51.4603 H       1  ZINC000459459628    0.0600
     39 H39        -0.0295    1.2932   52.0074 H       1  ZINC000459459628    0.0700
     40 H40         1.2972    1.3489   50.8219 H       1  ZINC000459459628    0.0800
     41 H41        -1.6859    1.7691   52.3446 H       1  ZINC000459459628    0.4100
     42 H42        -3.9729   -0.2361   51.1658 H       1  ZINC000459459628    0.1600
     43 H43        -7.4816    1.6952   52.7062 H       1  ZINC000459459628    0.1400
     44 H44        -6.1516    3.6962   53.2205 H       1  ZINC000459459628    0.1500
     45 H45        -3.4278    3.2435   54.7072 H       1  ZINC000459459628    0.1900
@<TRIPOS>BOND
     1     1     2    1
     2     1    29    1
     3     1    30    1
     4     1    31    1
     5     2     3    1
     6     2     4    1
     7     2    12    1
     8     4     5    1
     9     4    32    1
    10     4    33    1
    11     5    11   ar
    12     5     6   ar
    13     6     7   ar
    14     6    34    1
    15     7     8   ar
    16     7    35    1
    17     8     9   ar
    18     8    36    1
    19     9    10    1
    20     9    11   ar
    21    11    37    1
    22    12    13    1
    23    12    14   am
    24    13    38    1
    25    13    39    1
    26    13    40    1
    27    14    15    2
    28    14    16   am
    29    16    17    1
    30    16    41    1
    31    17    24   ar
    32    17    18   ar
    33    18    19   ar
    34    18    42    1
    35    19    20    1
    36    19    22   ar
    37    20    21    3
    38    22    23   ar
    39    22    43    1
    40    23    24   ar
    41    23    44    1
    42    24    25    1
    43    25    26    1
    44    26    27    1
    45    26    28    1
    46    26    45    1
@<TRIPOS>SUBSTRUCTURE
     1 ZINC000459459628        1 TEMP              0 ****  ****    0 ROOT


##########                                Name:    ZINC001289445798
##########                DOCK_Rotatable_Bonds:                  10
##########                         Heavy_Atoms:                  25
##########                    Molecular_Weight:             352.434
##########                DOCK_Rotatable_Bonds:                  10
##########                       Formal_Charge:          0.00999932
##########                     HBond_Acceptors:                   8
##########                        HBond_Donors:                   2
##########                         Heavy_Atoms:                  25
##########                          Grid_Score:          -30.996771
##########                     Grid_vdw_energy:          -29.028913
##########                      Grid_es_energy:           -1.967858
##########           Internal_energy_repulsive:           12.988461

@<TRIPOS>MOLECULE
ZINC001289445798
 53 54 1 0 0
SMALL
USER_CHARGES


@<TRIPOS>ATOM
      1 C1          1.3024    5.8154   48.5597 C.3     1  ZINC001289445798   -0.1500
      2 C2          0.2211    4.7419   48.4228 C.3     1  ZINC001289445798    0.0600
      3 O3          0.8155    3.4483   48.5473 O.3     1  ZINC001289445798   -0.3700
      4 C4         -0.1236    2.3718   48.5183 C.3     1  ZINC001289445798    0.1100
      5 H5         -1.1369    2.7732   48.5309 H       1  ZINC001289445798    0.0700
      6 C6          0.0863    1.4787   49.7427 C.3     1  ZINC001289445798   -0.1400
      7 C7          0.0084    2.3150   50.9939 C.2     1  ZINC001289445798    0.5400
      8 O8          1.0248    2.7223   51.5153 O.2     1  ZINC001289445798   -0.5200
      9 N9         -1.1908    2.6103   51.5335 N.am    1  ZINC001289445798   -0.6200
     10 C10        -2.4953    2.1772   51.0117 C.3     1  ZINC001289445798    0.1000
     11 C11        -3.5761    2.7274   51.9658 C.3     1  ZINC001289445798    0.1400
     12 H12        -3.9831    3.6652   51.5878 H       1  ZINC001289445798    0.1200
     13 N13        -4.6433    1.7434   52.1628 N.am    1  ZINC001289445798   -0.7200
     14 C14        -5.8914    2.1539   52.4631 C.2     1  ZINC001289445798    0.6000
     15 O15        -6.1314    3.3413   52.5722 O.2     1  ZINC001289445798   -0.5100
     16 C16        -6.9639    1.1655   52.6592 C.2     1  ZINC001289445798   -0.0500
     17 C17        -7.2366    0.0665   51.8633 C.2     1  ZINC001289445798   -0.1400
     18 C18        -8.3375   -0.5557   52.4562 C.2     1  ZINC001289445798    0.0000
     19 N19        -8.6692    0.1386   53.5146 N.2     1  ZINC001289445798   -0.2700
     20 N20        -7.8862    1.1454   53.6667 N.pl3   1  ZINC001289445798   -0.3800
     21 C21        -2.7902    2.9616   53.2830 C.3     1  ZINC001289445798    0.0700
     22 H22        -2.6992    2.0372   53.8533 H       1  ZINC001289445798    0.0900
     23 O23        -3.4013    3.9868   54.0689 O.3     1  ZINC001289445798   -0.3700
     24 C24        -3.8540    3.5450   55.3502 C.3     1  ZINC001289445798    0.0300
     25 C25        -1.4114    3.4156   52.7485 C.3     1  ZINC001289445798    0.0800
     26 C26         0.0831    1.5487   47.2453 C.3     1  ZINC001289445798   -0.1100
     27 C27        -1.2603    0.9837   46.7794 C.3     1  ZINC001289445798   -0.1500
     28 C28         0.6680    2.4422   46.1496 C.3     1  ZINC001289445798   -0.1500
     29 H29         2.0485    5.6816   47.7765 H       1  ZINC001289445798    0.0600
     30 H30         0.8490    6.8021   48.4648 H       1  ZINC001289445798    0.0700
     31 H31         1.7802    5.7276   49.5354 H       1  ZINC001289445798    0.0600
     32 H32        -0.5251    4.8756   49.2061 H       1  ZINC001289445798    0.0500
     33 H33        -0.2568    4.8298   47.4471 H       1  ZINC001289445798    0.0500
     34 H34        -0.6875    0.7114   49.7697 H       1  ZINC001289445798    0.1100
     35 H35         1.0661    1.0046   49.6830 H       1  ZINC001289445798    0.1000
     36 H36        -2.6457    2.5794   50.0098 H       1  ZINC001289445798    0.0800
     37 H37        -2.5418    1.0885   50.9871 H       1  ZINC001289445798    0.0800
     38 H38        -4.4518    0.7964   52.0771 H       1  ZINC001289445798    0.4000
     39 H39        -6.7099   -0.2439   50.9729 H       1  ZINC001289445798    0.1700
     40 H40        -8.8283   -1.4507   52.1033 H       1  ZINC001289445798    0.1900
     41 H41        -7.9451    1.7961   54.3837 H       1  ZINC001289445798    0.4400
     42 H42        -4.3052    4.3812   55.8843 H       1  ZINC001289445798    0.0900
     43 H43        -4.5935    2.7546   55.2216 H       1  ZINC001289445798    0.0400
     44 H44        -3.0087    3.1623   55.9221 H       1  ZINC001289445798    0.0500
     45 H45        -0.6342    3.2163   53.4862 H       1  ZINC001289445798    0.0900
     46 H46        -1.4329    4.4757   52.4957 H       1  ZINC001289445798    0.0900
     47 H47         0.7707    0.7283   47.4506 H       1  ZINC001289445798    0.0800
     48 H48        -1.9480    1.8041   46.5740 H       1  ZINC001289445798    0.0600
     49 H49        -1.1130    0.3974   45.8724 H       1  ZINC001289445798    0.0600
     50 H50        -1.6770    0.3471   47.5599 H       1  ZINC001289445798    0.0600
     51 H51         1.6675    2.7658   46.4398 H       1  ZINC001289445798    0.0600
     52 H52         0.7240    1.8828   45.2158 H       1  ZINC001289445798    0.0600
     53 H53         0.0292    3.3147   46.0126 H       1  ZINC001289445798    0.0500
@<TRIPOS>BOND
     1     1     2    1
     2     1    29    1
     3     1    30    1
     4     1    31    1
     5     2     3    1
     6     2    32    1
     7     2    33    1
     8     3     4    1
     9     4     5    1
    10     4     6    1
    11     4    26    1
    12     6     7    1
    13     6    34    1
    14     6    35    1
    15     7     8    2
    16     7     9   am
    17     9    25    1
    18     9    10    1
    19    10    11    1
    20    10    36    1
    21    10    37    1
    22    11    12    1
    23    11    13    1
    24    11    21    1
    25    13    14   am
    26    13    38    1
    27    14    15    2
    28    14    16    1
    29    16    20    1
    30    16    17    2
    31    17    18    1
    32    17    39    1
    33    18    19    2
    34    18    40    1
    35    19    20    1
    36    20    41    1
    37    21    22    1
    38    21    23    1
    39    21    25    1
    40    23    24    1
    41    24    42    1
    42    24    43    1
    43    24    44    1
    44    25    45    1
    45    25    46    1
    46    26    27    1
    47    26    28    1
    48    26    47    1
    49    27    48    1
    50    27    49    1
    51    27    50    1
    52    28    51    1
    53    28    52    1
    54    28    53    1
@<TRIPOS>SUBSTRUCTURE
     1 ZINC001289445798        1 TEMP              0 ****  ****    0 ROOT


##########                                Name:    ZINC000281257088
##########                DOCK_Rotatable_Bonds:                   8
##########                         Heavy_Atoms:                  27
##########                    Molecular_Weight:             395.541
##########                DOCK_Rotatable_Bonds:                   8
##########                       Formal_Charge:          -0.0200005
##########                     HBond_Acceptors:                   7
##########                        HBond_Donors:                   1
##########                         Heavy_Atoms:                  27
##########                          Grid_Score:          -30.996157
##########                     Grid_vdw_energy:          -30.528397
##########                      Grid_es_energy:           -0.467759
##########           Internal_energy_repulsive:           21.904318

@<TRIPOS>MOLECULE
ZINC000281257088
 57 58 1 0 0
SMALL
USER_CHARGES


@<TRIPOS>ATOM
      1 C1         -8.9438    2.5610   54.2461 C.3     1  ZINC000281257088   -0.0700
      2 C2         -7.9863    1.6874   53.4773 C.2     1  ZINC000281257088    0.1000
      3 N3         -6.8086    2.0453   53.0337 N.2     1  ZINC000281257088   -0.3000
      4 N4         -6.2377    0.9491   52.3742 N.pl3   1  ZINC000281257088   -0.3700
      5 C5         -4.9226    0.9207   51.7292 C.3     1  ZINC000281257088    0.1500
      6 C6         -4.1819    2.2267   52.0233 C.3     1  ZINC000281257088   -0.6400
      7 S7         -2.6340    2.2700   51.0785 S.o2    1  ZINC000281257088    2.4300
      8 C8         -2.1171    3.9965   51.2848 C.3     1  ZINC000281257088   -0.6500
      9 O9         -1.6851    1.4330   51.7254 O.2     1  ZINC000281257088   -0.9300
     10 O10        -2.9341    2.0480   49.7074 O.2     1  ZINC000281257088   -0.9300
     11 C11        -7.1129   -0.0760   52.4382 C.2     1  ZINC000281257088    0.0900
     12 C12        -6.9124   -1.4529   51.8594 C.3     1  ZINC000281257088   -0.1000
     13 C13        -8.2005    0.3522   53.1200 C.2     1  ZINC000281257088   -0.2300
     14 C14        -9.4292   -0.4628   53.4315 C.3     1  ZINC000281257088    0.1400
     15 N15       -10.4115   -0.3002   52.3515 N.3     1  ZINC000281257088   -0.6700
     16 C16       -11.7793   -0.2590   52.8857 C.3     1  ZINC000281257088    0.1400
     17 H17       -11.8503    0.5220   53.6429 H       1  ZINC000281257088    0.0500
     18 C18       -12.1172   -1.5908   53.5047 C.ar    1  ZINC000281257088   -0.0800
     19 C19       -11.6817   -2.7597   52.9089 C.ar    1  ZINC000281257088   -0.0600
     20 C20       -11.9910   -3.9817   53.4756 C.ar    1  ZINC000281257088   -0.1600
     21 C21       -12.7369   -4.0348   54.6408 C.ar    1  ZINC000281257088    0.1000
     22 F22       -13.0394   -5.2287   55.1960 F       1  ZINC000281257088   -0.1400
     23 C23       -13.1721   -2.8634   55.2369 C.ar    1  ZINC000281257088   -0.1600
     24 C24       -12.8576   -1.6425   54.6710 C.ar    1  ZINC000281257088   -0.0900
     25 C25       -12.7612    0.0399   51.7511 C.3     1  ZINC000281257088   -0.0600
     26 C26       -14.1815    0.1215   52.3140 C.3     1  ZINC000281257088   -0.1400
     27 C27       -12.3943    1.3735   51.0971 C.3     1  ZINC000281257088   -0.1400
     28 C28       -12.6897   -1.0767   50.7075 C.3     1  ZINC000281257088   -0.1500
     29 H29        -8.7447    2.4665   55.3135 H       1  ZINC000281257088    0.0800
     30 H30        -8.8121    3.5995   53.9423 H       1  ZINC000281257088    0.0700
     31 H31        -9.9673    2.2488   54.0383 H       1  ZINC000281257088    0.0800
     32 H32        -4.3460    0.0808   52.1166 H       1  ZINC000281257088    0.1100
     33 H33        -5.0485    0.8090   50.6522 H       1  ZINC000281257088    0.1100
     34 H34        -4.8071    3.0718   51.7353 H       1  ZINC000281257088    0.1400
     35 H35        -3.9591    2.2861   53.0886 H       1  ZINC000281257088    0.1400
     36 H36        -1.9775    4.2097   52.3445 H       1  ZINC000281257088    0.1300
     37 H37        -1.1792    4.1608   50.7544 H       1  ZINC000281257088    0.1300
     38 H38        -2.8842    4.6563   50.8795 H       1  ZINC000281257088    0.1300
     39 H39        -6.4373   -2.0937   52.6023 H       1  ZINC000281257088    0.0800
     40 H40        -7.8783   -1.8741   51.5807 H       1  ZINC000281257088    0.0900
     41 H41        -6.2764   -1.3869   50.9766 H       1  ZINC000281257088    0.0700
     42 H42        -9.1553   -1.5144   53.5181 H       1  ZINC000281257088    0.0800
     43 H43        -9.8628   -0.1217   54.3716 H       1  ZINC000281257088    0.0300
     44 H44       -10.2127    0.5229   51.8028 H       1  ZINC000281257088    0.3400
     45 H45       -11.0998   -2.7180   52.0000 H       1  ZINC000281257088    0.1400
     46 H46       -11.6512   -4.8948   53.0095 H       1  ZINC000281257088    0.1300
     47 H47       -13.7543   -2.9037   56.1457 H       1  ZINC000281257088    0.1300
     48 H48       -13.1967   -0.7286   55.1361 H       1  ZINC000281257088    0.1300
     49 H49       -14.2324    0.9170   53.0575 H       1  ZINC000281257088    0.0600
     50 H50       -14.8811    0.3345   51.5057 H       1  ZINC000281257088    0.0500
     51 H51       -14.4429   -0.8285   52.7800 H       1  ZINC000281257088    0.0600
     52 H52       -11.3825    1.3153   50.6960 H       1  ZINC000281257088    0.0500
     53 H53       -13.0938    1.5864   50.2887 H       1  ZINC000281257088    0.0600
     54 H54       -12.4453    2.1689   51.8406 H       1  ZINC000281257088    0.0600
     55 H55       -13.0258   -2.0128   51.1533 H       1  ZINC000281257088    0.0500
     56 H56       -13.3310   -0.8258   49.8625 H       1  ZINC000281257088    0.0600
     57 H57       -11.6614   -1.1868   50.3631 H       1  ZINC000281257088    0.0600
@<TRIPOS>BOND
     1     1     2    1
     2     1    29    1
     3     1    30    1
     4     1    31    1
     5     2    13    1
     6     2     3    2
     7     3     4    1
     8     4     5    1
     9     4    11    1
    10     5     6    1
    11     5    32    1
    12     5    33    1
    13     6     7    1
    14     6    34    1
    15     6    35    1
    16     7     8    1
    17     7     9    2
    18     7    10    2
    19     8    36    1
    20     8    37    1
    21     8    38    1
    22    11    12    1
    23    11    13    2
    24    12    39    1
    25    12    40    1
    26    12    41    1
    27    13    14    1
    28    14    15    1
    29    14    42    1
    30    14    43    1
    31    15    16    1
    32    15    44    1
    33    16    17    1
    34    16    18    1
    35    16    25    1
    36    18    24   ar
    37    18    19   ar
    38    19    20   ar
    39    19    45    1
    40    20    21   ar
    41    20    46    1
    42    21    22    1
    43    21    23   ar
    44    23    24   ar
    45    23    47    1
    46    24    48    1
    47    25    26    1
    48    25    27    1
    49    25    28    1
    50    26    49    1
    51    26    50    1
    52    26    51    1
    53    27    52    1
    54    27    53    1
    55    27    54    1
    56    28    55    1
    57    28    56    1
    58    28    57    1
@<TRIPOS>SUBSTRUCTURE
     1 ZINC000281257088        1 TEMP              0 ****  ****    0 ROOT


##########                                Name:    ZINC000191003171
##########                DOCK_Rotatable_Bonds:                   6
##########                         Heavy_Atoms:                  26
##########                    Molecular_Weight:             389.414
##########                DOCK_Rotatable_Bonds:                   6
##########                       Formal_Charge:          -0.0200002
##########                     HBond_Acceptors:                   8
##########                        HBond_Donors:                   1
##########                         Heavy_Atoms:                  26
##########                          Grid_Score:          -30.982382
##########                     Grid_vdw_energy:          -30.743629
##########                      Grid_es_energy:           -0.238753
##########           Internal_energy_repulsive:           16.768276

@<TRIPOS>MOLECULE
ZINC000191003171
 45 46 1 0 0
SMALL
USER_CHARGES


@<TRIPOS>ATOM
      1 C1         -6.4483    3.1881   54.6130 C.3     1  ZINC000191003171   -0.1200
      2 C2         -6.6843    2.1137   53.5827 C.ar    1  ZINC000191003171   -0.0800
      3 C3         -7.8478    1.3686   53.6156 C.ar    1  ZINC000191003171   -0.0700
      4 C4         -8.0643    0.3829   52.6704 C.ar    1  ZINC000191003171   -0.1800
      5 C5         -9.3328   -0.4299   52.7064 C.3     1  ZINC000191003171    0.5100
      6 F6         -9.8318   -0.4579   54.0130 F       1  ZINC000191003171   -0.1800
      7 F7        -10.2818    0.1489   51.8570 F       1  ZINC000191003171   -0.1800
      8 F8         -9.0622   -1.7355   52.2824 F       1  ZINC000191003171   -0.1800
      9 C9         -7.1176    0.1435   51.6923 C.ar    1  ZINC000191003171   -0.0800
     10 C10        -5.9539    0.8892   51.6593 C.ar    1  ZINC000191003171   -0.1000
     11 C11        -5.7394    1.8774   52.6015 C.ar    1  ZINC000191003171   -0.0500
     12 C12        -4.4709    2.6902   52.5655 C.3     1  ZINC000191003171    0.0900
     13 N13        -3.6285    2.2342   51.4518 N.3     1  ZINC000191003171   -0.6800
     14 C14        -2.2551    2.7367   51.5904 C.3     1  ZINC000191003171    0.1200
     15 H15        -1.8902    2.5244   52.5953 H       1  ZINC000191003171    0.0600
     16 C16        -2.2383    4.2478   51.3505 C.3     1  ZINC000191003171   -0.1400
     17 C17        -1.3674    2.0577   50.5797 C.ar    1  ZINC000191003171   -0.0100
     18 C18        -0.0649    1.7344   50.9108 C.ar    1  ZINC000191003171   -0.1300
     19 C19         0.7508    1.1113   49.9844 C.ar    1  ZINC000191003171    0.0100
     20 C20         0.2647    0.8113   48.7262 C.ar    1  ZINC000191003171   -0.7000
     21 S21         1.3046    0.0173   47.5460 S.o2    1  ZINC000191003171    2.5000
     22 C22         1.7665    1.3365   46.3897 C.3     1  ZINC000191003171   -0.6500
     23 O23         2.4334   -0.4028   48.3000 O.2     1  ZINC000191003171   -0.9300
     24 O24         0.4552   -0.9281   46.9104 O.2     1  ZINC000191003171   -0.9300
     25 C25        -1.0401    1.1343   48.3935 C.ar    1  ZINC000191003171    0.1900
     26 F26        -1.5165    0.8413   47.1637 F       1  ZINC000191003171   -0.1200
     27 C27        -1.8575    1.7534   49.3236 C.ar    1  ZINC000191003171   -0.1700
     28 H28        -6.8530    4.1333   54.2514 H       1  ZINC000191003171    0.0800
     29 H29        -6.9434    2.9134   55.5444 H       1  ZINC000191003171    0.0800
     30 H30        -5.3777    3.2945   54.7881 H       1  ZINC000191003171    0.0600
     31 H31        -8.5877    1.5560   54.3796 H       1  ZINC000191003171    0.1400
     32 H32        -7.2867   -0.6264   50.9541 H       1  ZINC000191003171    0.1400
     33 H33        -5.2140    0.7019   50.8952 H       1  ZINC000191003171    0.1400
     34 H34        -4.7177    3.7428   52.4271 H       1  ZINC000191003171    0.0900
     35 H35        -3.9317    2.5639   53.5043 H       1  ZINC000191003171    0.0500
     36 H36        -3.6397    1.2279   51.3784 H       1  ZINC000191003171    0.3500
     37 H37        -1.2192    4.6207   51.4534 H       1  ZINC000191003171    0.0600
     38 H38        -2.6032    4.4601   50.3455 H       1  ZINC000191003171    0.0700
     39 H39        -2.8804    4.7389   52.0816 H       1  ZINC000191003171    0.0600
     40 H40         0.3160    1.9689   51.8938 H       1  ZINC000191003171    0.1500
     41 H41         1.7684    0.8594   50.2441 H       1  ZINC000191003171    0.1600
     42 H42         2.2913    2.1251   46.9291 H       1  ZINC000191003171    0.1300
     43 H43         2.4180    0.9300   45.6162 H       1  ZINC000191003171    0.1400
     44 H44         0.8680    1.7471   45.9293 H       1  ZINC000191003171    0.1300
     45 H45        -2.8754    2.0054   49.0653 H       1  ZINC000191003171    0.1500
@<TRIPOS>BOND
     1     1     2    1
     2     1    28    1
     3     1    29    1
     4     1    30    1
     5     2    11   ar
     6     2     3   ar
     7     3     4   ar
     8     3    31    1
     9     4     5    1
    10     4     9   ar
    11     5     6    1
    12     5     7    1
    13     5     8    1
    14     9    10   ar
    15     9    32    1
    16    10    11   ar
    17    10    33    1
    18    11    12    1
    19    12    13    1
    20    12    34    1
    21    12    35    1
    22    13    14    1
    23    13    36    1
    24    14    15    1
    25    14    16    1
    26    14    17    1
    27    16    37    1
    28    16    38    1
    29    16    39    1
    30    17    27   ar
    31    17    18   ar
    32    18    19   ar
    33    18    40    1
    34    19    20   ar
    35    19    41    1
    36    20    21    1
    37    20    25   ar
    38    21    22    1
    39    21    23    2
    40    21    24    2
    41    22    42    1
    42    22    43    1
    43    22    44    1
    44    25    26    1
    45    25    27   ar
    46    27    45    1
@<TRIPOS>SUBSTRUCTURE
     1 ZINC000191003171        1 TEMP              0 ****  ****    0 ROOT


##########                                Name:    ZINC000880838037
##########                DOCK_Rotatable_Bonds:                   9
##########                         Heavy_Atoms:                  24
##########                    Molecular_Weight:             365.477
##########                DOCK_Rotatable_Bonds:                   9
##########                       Formal_Charge:           0.0200001
##########                     HBond_Acceptors:                   8
##########                        HBond_Donors:                   3
##########                         Heavy_Atoms:                  24
##########                          Grid_Score:          -30.978458
##########                     Grid_vdw_energy:          -29.588240
##########                      Grid_es_energy:           -1.390219
##########           Internal_energy_repulsive:           10.096752

@<TRIPOS>MOLECULE
ZINC000880838037
 43 44 1 0 0
SMALL
USER_CHARGES


@<TRIPOS>ATOM
      1 C1         -5.1055    3.4387   55.4168 C.3     1  ZINC000880838037    0.0300
      2 O2         -5.8276    3.6863   54.2087 O.3     1  ZINC000880838037   -0.3100
      3 C3         -6.3156    2.6033   53.5486 C.ar    1  ZINC000880838037    0.1400
      4 C4         -5.5728    2.0157   52.5344 C.ar    1  ZINC000880838037   -0.2200
      5 C5         -6.0678    0.9142   51.8621 C.ar    1  ZINC000880838037   -0.0700
      6 C6         -7.3033    0.3951   52.1970 C.ar    1  ZINC000880838037   -0.1500
      7 C7         -8.0515    0.9797   53.2112 C.ar    1  ZINC000880838037    0.1800
      8 N8         -9.3030    0.4539   53.5505 N.am    1  ZINC000880838037   -0.6700
      9 C9        -10.4060    0.8606   52.8913 C.2     1  ZINC000880838037    0.5200
     10 O10       -10.3137    1.6823   52.0040 O.2     1  ZINC000880838037   -0.4900
     11 C11       -11.7538    0.2944   53.2567 C.3     1  ZINC000880838037   -0.0600
     12 C12       -11.7285   -1.2042   53.0994 C.2     1  ZINC000880838037    0.1000
     13 C13       -11.0872   -1.8131   52.1014 C.2     1  ZINC000880838037   -0.2600
     14 S14       -11.3078   -3.5508   52.2885 S.3     1  ZINC000880838037    0.1300
     15 C15       -12.2442   -3.2913   53.6952 C.2     1  ZINC000880838037    0.0100
     16 S16       -12.9725   -4.5641   54.6721 S.3     1  ZINC000880838037    0.1000
     17 C17       -13.1807   -3.6789   56.2371 C.3     1  ZINC000880838037   -0.1500
     18 H18       -13.6162   -2.6984   56.0447 H       1  ZINC000880838037    0.1200
     19 C19       -11.8182   -3.5084   56.9118 C.3     1  ZINC000880838037   -0.1500
     20 C20       -14.0941   -4.4655   57.1415 C.2     1  ZINC000880838037    0.5400
     21 N21       -14.8441   -3.8275   58.0618 N.am    1  ZINC000880838037   -0.8400
     22 O22       -14.1544   -5.6726   57.0412 O.2     1  ZINC000880838037   -0.5200
     23 N23       -12.3354   -2.0207   53.9420 N.2     1  ZINC000880838037   -0.4200
     24 C24        -7.5532    2.0815   53.8917 C.ar    1  ZINC000880838037   -0.1500
     25 C25        -8.3620    2.7182   54.9924 C.3     1  ZINC000880838037   -0.1000
     26 H26        -4.2397    2.8128   55.2007 H       1  ZINC000880838037    0.0600
     27 H27        -4.7724    4.3857   55.8416 H       1  ZINC000880838037    0.1000
     28 H28        -5.7537    2.9289   56.1296 H       1  ZINC000880838037    0.0600
     29 H29        -4.6068    2.4197   52.2699 H       1  ZINC000880838037    0.1300
     30 H30        -5.4878    0.4587   51.0732 H       1  ZINC000880838037    0.1300
     31 H31        -7.6880   -0.4654   51.6698 H       1  ZINC000880838037    0.1400
     32 H32        -9.3767   -0.2032   54.2601 H       1  ZINC000880838037    0.4100
     33 H33       -11.9858    0.5472   54.2913 H       1  ZINC000880838037    0.1200
     34 H34       -12.5151    0.7158   52.6003 H       1  ZINC000880838037    0.1200
     35 H35       -10.5301   -1.3258   51.3150 H       1  ZINC000880838037    0.1800
     36 H36       -11.3827   -4.4889   57.1042 H       1  ZINC000880838037    0.0900
     37 H37       -11.1574   -2.9394   56.2577 H       1  ZINC000880838037    0.0800
     38 H38       -11.9435   -2.9753   57.8542 H       1  ZINC000880838037    0.0800
     39 H39       -15.4329   -4.3336   58.6432 H       1  ZINC000880838037    0.4000
     40 H40       -14.7949   -2.8621   58.1429 H       1  ZINC000880838037    0.4100
     41 H41        -8.1144    2.2477   55.9439 H       1  ZINC000880838037    0.0700
     42 H42        -8.1326    3.7826   55.0428 H       1  ZINC000880838037    0.0700
     43 H43        -9.4240    2.5848   54.7866 H       1  ZINC000880838037    0.0600
@<TRIPOS>BOND
     1     1     2    1
     2     1    26    1
     3     1    27    1
     4     1    28    1
     5     2     3    1
     6     3    24   ar
     7     3     4   ar
     8     4     5   ar
     9     4    29    1
    10     5     6   ar
    11     5    30    1
    12     6     7   ar
    13     6    31    1
    14     7     8    1
    15     7    24   ar
    16     8     9   am
    17     8    32    1
    18     9    10    2
    19     9    11    1
    20    11    12    1
    21    11    33    1
    22    11    34    1
    23    12    23    1
    24    12    13    2
    25    13    14    1
    26    13    35    1
    27    14    15    1
    28    15    16    1
    29    15    23    2
    30    16    17    1
    31    17    18    1
    32    17    19    1
    33    17    20    1
    34    19    36    1
    35    19    37    1
    36    19    38    1
    37    20    21   am
    38    20    22    2
    39    21    39    1
    40    21    40    1
    41    24    25    1
    42    25    41    1
    43    25    42    1
    44    25    43    1
@<TRIPOS>SUBSTRUCTURE
     1 ZINC000880838037        1 TEMP              0 ****  ****    0 ROOT


##########                                Name:    ZINC000971513996
##########                DOCK_Rotatable_Bonds:                   6
##########                         Heavy_Atoms:                  27
##########                    Molecular_Weight:             369.464
##########                DOCK_Rotatable_Bonds:                   6
##########                       Formal_Charge:          -0.0300002
##########                     HBond_Acceptors:                   6
##########                        HBond_Donors:                   1
##########                         Heavy_Atoms:                  27
##########                          Grid_Score:          -30.974117
##########                     Grid_vdw_energy:          -30.675945
##########                      Grid_es_energy:           -0.298173
##########           Internal_energy_repulsive:           21.072397

@<TRIPOS>MOLECULE
ZINC000971513996
 54 57 1 0 0
SMALL
USER_CHARGES


@<TRIPOS>ATOM
      1 C1        -13.7561   -4.6189   55.4901 C.3     1  ZINC000971513996   -0.1600
      2 C2        -12.6038   -4.4346   56.4796 C.3     1  ZINC000971513996   -0.1400
      3 C3        -11.8632   -3.1336   56.1633 C.3     1  ZINC000971513996    0.0800
      4 H4        -12.5103   -2.2845   56.3833 H       1  ZINC000971513996    0.0800
      5 O5        -10.6815   -3.0517   56.9627 O.3     1  ZINC000971513996   -0.3600
      6 C6        -10.9346   -2.9583   58.3661 C.3     1  ZINC000971513996    0.0200
      7 C7        -11.4853   -3.1126   54.7046 C.2     1  ZINC000971513996    0.5400
      8 O8        -10.5684   -3.7990   54.3058 O.2     1  ZINC000971513996   -0.5100
      9 N9        -12.1662   -2.3311   53.8433 N.am    1  ZINC000971513996   -0.6400
     10 C10       -13.2953   -1.3883   53.9184 C.3     1  ZINC000971513996    0.1000
     11 C11       -12.6749   -0.6500   52.7167 C.3     1  ZINC000971513996   -0.1200
     12 H12       -13.3915   -0.2717   51.9876 H       1  ZINC000971513996    0.1100
     13 C13       -11.6465    0.3890   53.1701 C.3     1  ZINC000971513996   -0.1200
     14 C14       -10.4776    0.4063   52.1806 C.3     1  ZINC000971513996    0.1100
     15 N15        -9.8975   -0.9384   52.1320 N.am    1  ZINC000971513996   -0.6000
     16 C16        -8.5881   -1.1118   52.4002 C.2     1  ZINC000971513996    0.5900
     17 O17        -8.1015   -2.2260   52.3612 O.2     1  ZINC000971513996   -0.5200
     18 C18        -7.7475    0.0461   52.7399 C.2     1  ZINC000971513996    0.0200
     19 C19        -7.8379    0.7771   53.8815 C.2     1  ZINC000971513996   -0.1000
     20 C20        -6.8563    1.7958   53.8201 C.ar    1  ZINC000971513996   -0.1100
     21 C21        -6.4861    2.8287   54.6905 C.ar    1  ZINC000971513996   -0.0600
     22 C22        -5.4733    3.6761   54.3465 C.ar    1  ZINC000971513996   -0.1200
     23 C23        -5.0775    4.7866   55.2853 C.3     1  ZINC000971513996   -0.1100
     24 C24        -4.8033    3.5244   53.1392 C.ar    1  ZINC000971513996   -0.0800
     25 C25        -5.1487    2.5167   52.2666 C.ar    1  ZINC000971513996   -0.1300
     26 C26        -6.1787    1.6399   52.5947 C.ar    1  ZINC000971513996    0.1100
     27 N27        -6.7360    0.5601   51.9516 N.pl3   1  ZINC000971513996   -0.5800
     28 C28       -10.7251   -2.0897   51.7965 C.3     1  ZINC000971513996    0.0700
     29 C29       -12.1136   -2.0307   52.4107 C.3     1  ZINC000971513996    0.1300
     30 H30       -12.8201   -2.6421   51.8493 H       1  ZINC000971513996    0.1100
     31 H31       -14.2185   -5.5932   55.6482 H       1  ZINC000971513996    0.0600
     32 H32       -14.4977   -3.8354   55.6458 H       1  ZINC000971513996    0.0600
     33 H33       -13.3732   -4.5595   54.4712 H       1  ZINC000971513996    0.0600
     34 H34       -12.9998   -4.3898   57.4941 H       1  ZINC000971513996    0.0800
     35 H35       -11.9146   -5.2748   56.3953 H       1  ZINC000971513996    0.0800
     36 H36       -11.4381   -2.0161   58.5826 H       1  ZINC000971513996    0.0400
     37 H37       -11.5684   -3.7888   58.6771 H       1  ZINC000971513996    0.0500
     38 H38        -9.9903   -2.9988   58.9090 H       1  ZINC000971513996    0.0900
     39 H39       -14.2597   -1.8457   53.6975 H       1  ZINC000971513996    0.0900
     40 H40       -13.3077   -0.7963   54.8336 H       1  ZINC000971513996    0.0800
     41 H41       -12.1127    1.3738   53.2001 H       1  ZINC000971513996    0.0900
     42 H42       -11.2792    0.1287   54.1628 H       1  ZINC000971513996    0.0700
     43 H43       -10.8380    0.6871   51.1909 H       1  ZINC000971513996    0.0800
     44 H44        -9.7242    1.1199   52.5141 H       1  ZINC000971513996    0.1000
     45 H45        -8.5337    0.6110   54.6907 H       1  ZINC000971513996    0.1500
     46 H46        -7.0012    2.9546   55.6314 H       1  ZINC000971513996    0.1200
     47 H47        -4.3047    4.4289   55.9658 H       1  ZINC000971513996    0.0700
     48 H48        -4.6936    5.6292   54.7102 H       1  ZINC000971513996    0.0600
     49 H49        -5.9479    5.1047   55.8592 H       1  ZINC000971513996    0.0600
     50 H50        -4.0039    4.2037   52.8822 H       1  ZINC000971513996    0.1300
     51 H51        -4.6221    2.4071   51.3300 H       1  ZINC000971513996    0.1200
     52 H52        -6.4644    0.2163   51.0862 H       1  ZINC000971513996    0.4200
     53 H53       -10.8349   -2.1394   50.7132 H       1  ZINC000971513996    0.0800
     54 H54       -10.2226   -2.9948   52.1380 H       1  ZINC000971513996    0.1200
@<TRIPOS>BOND
     1     1     2    1
     2     1    31    1
     3     1    32    1
     4     1    33    1
     5     2     3    1
     6     2    34    1
     7     2    35    1
     8     3     4    1
     9     3     5    1
    10     3     7    1
    11     5     6    1
    12     6    36    1
    13     6    37    1
    14     6    38    1
    15     7     8    2
    16     7     9   am
    17     9    29    1
    18     9    10    1
    19    10    11    1
    20    10    39    1
    21    10    40    1
    22    11    12    1
    23    11    29    1
    24    11    13    1
    25    13    14    1
    26    13    41    1
    27    13    42    1
    28    14    15    1
    29    14    43    1
    30    14    44    1
    31    15    16   am
    32    15    28    1
    33    16    17    2
    34    16    18    1
    35    18    27    1
    36    18    19    2
    37    19    20    1
    38    19    45    1
    39    20    26   ar
    40    20    21   ar
    41    21    22   ar
    42    21    46    1
    43    22    23    1
    44    22    24   ar
    45    23    47    1
    46    23    48    1
    47    23    49    1
    48    24    25   ar
    49    24    50    1
    50    25    26   ar
    51    25    51    1
    52    26    27    1
    53    27    52    1
    54    28    29    1
    55    28    53    1
    56    28    54    1
    57    29    30    1
@<TRIPOS>SUBSTRUCTURE
     1 ZINC000971513996        1 TEMP              0 ****  ****    0 ROOT


##########                                Name:    ZINC000963156778
##########                DOCK_Rotatable_Bonds:                   6
##########                         Heavy_Atoms:                  24
##########                    Molecular_Weight:             349.414
##########                DOCK_Rotatable_Bonds:                   6
##########                       Formal_Charge:         -0.00999984
##########                     HBond_Acceptors:                   9
##########                        HBond_Donors:                   2
##########                         Heavy_Atoms:                  24
##########                          Grid_Score:          -30.973885
##########                     Grid_vdw_energy:          -29.083839
##########                      Grid_es_energy:           -1.890046
##########           Internal_energy_repulsive:            9.907845

@<TRIPOS>MOLECULE
ZINC000963156778
 43 46 1 0 0
SMALL
USER_CHARGES


@<TRIPOS>ATOM
      1 C1        -11.9206   -3.9284   53.2831 C.3     1  ZINC000963156778   -0.0800
      2 C2        -12.1857   -2.6774   52.4856 C.2     1  ZINC000963156778    0.0300
      3 C3        -11.2146   -1.8343   52.0639 C.2     1  ZINC000963156778   -0.2600
      4 C4         -9.7282   -1.9493   52.2839 C.3     1  ZINC000963156778    0.1300
      5 N5         -9.0559   -0.7769   51.7082 N.3     1  ZINC000963156778   -0.5000
      6 C6         -7.6036   -1.0316   51.5270 C.3     1  ZINC000963156778    0.0600
      7 C7         -6.9688    0.3735   51.4509 C.3     1  ZINC000963156778   -0.1700
      8 H8         -6.4963    0.6641   50.5125 H       1  ZINC000963156778    0.1200
      9 C9         -7.9599    1.3014   52.1831 C.3     1  ZINC000963156778   -0.1700
     10 H10        -8.2145    2.2885   51.7972 H       1  ZINC000963156778    0.1200
     11 C11        -9.1103    0.3788   52.6401 C.3     1  ZINC000963156778    0.0600
     12 C12        -6.5226    1.0352   52.7562 C.3     1  ZINC000963156778    0.1200
     13 H13        -6.4438    0.4055   53.6424 H       1  ZINC000963156778    0.1400
     14 N14        -5.5479    2.1254   52.6680 N.am    1  ZINC000963156778   -0.7000
     15 C15        -4.3395    1.9057   52.1129 C.2     1  ZINC000963156778    0.5100
     16 O16        -4.0597    0.8059   51.6851 O.2     1  ZINC000963156778   -0.5000
     17 C17        -3.3363    3.0267   52.0238 C.3     1  ZINC000963156778   -0.1300
     18 C18        -2.0138    2.4852   51.4772 C.3     1  ZINC000963156778   -0.1100
     19 H19        -1.8093    1.4943   51.8830 H       1  ZINC000963156778    0.1300
     20 C20        -0.8567    3.4528   51.7989 C.3     1  ZINC000963156778   -0.1600
     21 C21        -0.3477    3.8631   50.4344 C.2     1  ZINC000963156778    0.5300
     22 O22         0.5712    4.6265   50.2280 O.2     1  ZINC000963156778   -0.4800
     23 N23        -1.0727    3.2492   49.4910 N.am    1  ZINC000963156778   -0.6900
     24 C24        -2.0385    2.4465   49.9649 C.2     1  ZINC000963156778    0.5200
     25 O25        -2.8074    1.7981   49.2881 O.2     1  ZINC000963156778   -0.4500
     26 S26       -12.0664   -0.6008   51.2181 S.3     1  ZINC000963156778    0.4500
     27 N27       -13.4921   -1.2048   51.4464 N.2     1  ZINC000963156778   -0.2900
     28 N28       -13.3880   -2.2856   52.1163 N.2     1  ZINC000963156778   -0.2400
     29 H29       -11.7640   -4.7662   52.6036 H       1  ZINC000963156778    0.0900
     30 H30       -11.0305   -3.7867   53.8962 H       1  ZINC000963156778    0.0800
     31 H31       -12.7754   -4.1371   53.9264 H       1  ZINC000963156778    0.0800
     32 H32        -9.5217   -1.9981   53.3530 H       1  ZINC000963156778    0.1000
     33 H33        -9.3584   -2.8537   51.8008 H       1  ZINC000963156778    0.0700
     34 H34        -7.2052   -1.5831   52.3786 H       1  ZINC000963156778    0.0600
     35 H35        -7.4263   -1.5795   50.6016 H       1  ZINC000963156778    0.0800
     36 H36       -10.0674    0.8929   52.5527 H       1  ZINC000963156778    0.1000
     37 H37        -8.9476    0.0481   53.6658 H       1  ZINC000963156778    0.0500
     38 H38        -5.7722    3.0052   53.0091 H       1  ZINC000963156778    0.4000
     39 H39        -3.7151    3.8011   51.3569 H       1  ZINC000963156778    0.1000
     40 H40        -3.1740    3.4487   53.0156 H       1  ZINC000963156778    0.1200
     41 H41        -1.2233    4.3199   52.3483 H       1  ZINC000963156778    0.1200
     42 H42        -0.0754    2.9426   52.3624 H       1  ZINC000963156778    0.1300
     43 H43        -0.9126    3.3731   48.5424 H       1  ZINC000963156778    0.4200
@<TRIPOS>BOND
     1     1     2    1
     2     1    29    1
     3     1    30    1
     4     1    31    1
     5     2    28    1
     6     2     3    2
     7     3     4    1
     8     3    26    1
     9     4     5    1
    10     4    32    1
    11     4    33    1
    12     5    11    1
    13     5     6    1
    14     6     7    1
    15     6    34    1
    16     6    35    1
    17     7     8    1
    18     7    12    1
    19     7     9    1
    20     9    10    1
    21     9    11    1
    22     9    12    1
    23    11    36    1
    24    11    37    1
    25    12    13    1
    26    12    14    1
    27    14    15   am
    28    14    38    1
    29    15    16    2
    30    15    17    1
    31    17    18    1
    32    17    39    1
    33    17    40    1
    34    18    19    1
    35    18    24    1
    36    18    20    1
    37    20    21    1
    38    20    41    1
    39    20    42    1
    40    21    22    2
    41    21    23   am
    42    23    24   am
    43    23    43    1
    44    24    25    2
    45    26    27    1
    46    27    28    2
@<TRIPOS>SUBSTRUCTURE
     1 ZINC000963156778        1 TEMP              0 ****  ****    0 ROOT


##########                                Name:    ZINC000464867530
##########                DOCK_Rotatable_Bonds:                   8
##########                         Heavy_Atoms:                  30
##########                    Molecular_Weight:              422.49
##########                DOCK_Rotatable_Bonds:                   8
##########                       Formal_Charge:         -0.00999994
##########                     HBond_Acceptors:                   7
##########                        HBond_Donors:                   0
##########                         Heavy_Atoms:                  30
##########                          Grid_Score:          -30.969614
##########                     Grid_vdw_energy:          -30.971214
##########                      Grid_es_energy:            0.001600
##########           Internal_energy_repulsive:           35.240509

@<TRIPOS>MOLECULE
ZINC000464867530
 59 62 1 0 0
SMALL
USER_CHARGES


@<TRIPOS>ATOM
      1 C1         -6.5234    0.4489   51.5538 C.3     1  ZINC000464867530   -0.1500
      2 C2         -7.5595    1.2953   52.2960 C.3     1  ZINC000464867530   -0.1400
      3 C3         -8.5830    0.3764   52.9662 C.3     1  ZINC000464867530    0.0900
      4 N4         -9.5457    1.1847   53.7188 N.am    1  ZINC000464867530   -0.6100
      5 C5         -9.1738    2.5238   54.1822 C.3     1  ZINC000464867530    0.0700
      6 C6         -8.3977    2.4116   55.4960 C.3     1  ZINC000464867530    0.4300
      7 F7         -7.2882    1.5794   55.3126 F       1  ZINC000464867530   -0.1700
      8 F8         -7.9672    3.6820   55.8933 F       1  ZINC000464867530   -0.1800
      9 F9         -9.2282    1.8707   56.4834 F       1  ZINC000464867530   -0.1800
     10 C10       -10.7733    0.6962   53.9847 C.2     1  ZINC000464867530    0.5300
     11 O11       -11.5703    1.3654   54.6078 O.2     1  ZINC000464867530   -0.5100
     12 C12       -11.1559   -0.6812   53.5079 C.3     1  ZINC000464867530   -0.1200
     13 H13       -10.2588   -1.2909   53.3999 H       1  ZINC000464867530    0.1000
     14 C14       -11.8670   -0.5750   52.1570 C.3     1  ZINC000464867530   -0.1200
     15 C15       -12.2267   -1.9757   51.6564 C.3     1  ZINC000464867530   -0.1300
     16 C16       -13.1804   -2.6408   52.6538 C.3     1  ZINC000464867530    0.1000
     17 N17       -12.5629   -2.6164   53.9868 N.am    1  ZINC000464867530   -0.6100
     18 C18       -12.4260   -3.7513   54.7010 C.2     1  ZINC000464867530    0.5500
     19 O19       -12.8128   -4.8058   54.2438 O.2     1  ZINC000464867530   -0.5300
     20 C20       -11.7921   -3.7097   56.0675 C.3     1  ZINC000464867530   -0.1700
     21 H21       -10.9114   -3.0737   56.1583 H       1  ZINC000464867530    0.1300
     22 C22       -11.8275   -4.9923   56.9031 C.3     1  ZINC000464867530   -0.1300
     23 C23       -12.7159   -3.8098   57.2756 C.3     1  ZINC000464867530   -0.0600
     24 C24       -14.2428   -3.8759   57.1057 C.3     1  ZINC000464867530   -0.0900
     25 C25       -14.7087   -2.5975   57.8372 C.3     1  ZINC000464867530   -0.0800
     26 C26       -13.6239   -2.3019   58.8514 C.ar    1  ZINC000464867530   -0.0900
     27 C27       -13.6403   -1.4868   59.9701 C.ar    1  ZINC000464867530   -0.1100
     28 C28       -12.5141   -1.3672   60.7611 C.ar    1  ZINC000464867530   -0.1100
     29 C29       -11.3658   -2.0638   60.4351 C.ar    1  ZINC000464867530   -0.1200
     30 C30       -11.3467   -2.8781   59.3194 C.ar    1  ZINC000464867530   -0.1000
     31 C31       -12.4741   -3.0002   58.5249 C.ar    1  ZINC000464867530   -0.0700
     32 C32       -12.0968   -1.3319   54.5267 C.3     1  ZINC000464867530    0.1300
     33 H33        -6.0152   -0.2062   52.2613 H       1  ZINC000464867530    0.0600
     34 H34        -7.0226   -0.1535   50.7948 H       1  ZINC000464867530    0.0600
     35 H35        -5.7942    1.1035   51.0763 H       1  ZINC000464867530    0.0600
     36 H36        -7.0603    1.8977   53.0549 H       1  ZINC000464867530    0.0700
     37 H37        -8.0678    1.9504   51.5884 H       1  ZINC000464867530    0.0700
     38 H38        -9.1088   -0.1987   52.2040 H       1  ZINC000464867530    0.0900
     39 H39        -8.0702   -0.3042   53.6457 H       1  ZINC000464867530    0.0900
     40 H40        -8.5491    3.0075   53.4314 H       1  ZINC000464867530    0.1300
     41 H41       -10.0747    3.1162   54.3418 H       1  ZINC000464867530    0.1200
     42 H42       -12.7767    0.0147   52.2708 H       1  ZINC000464867530    0.0800
     43 H43       -11.2079   -0.0900   51.4368 H       1  ZINC000464867530    0.0800
     44 H44       -12.7122   -1.9007   50.6833 H       1  ZINC000464867530    0.0900
     45 H45       -11.3199   -2.5737   51.5659 H       1  ZINC000464867530    0.0700
     46 H46       -14.1233   -2.0944   52.6778 H       1  ZINC000464867530    0.0700
     47 H47       -13.3614   -3.6729   52.3538 H       1  ZINC000464867530    0.0900
     48 H48       -12.3093   -5.8660   56.4642 H       1  ZINC000464867530    0.1100
     49 H49       -10.9706   -5.1996   57.5440 H       1  ZINC000464867530    0.1100
     50 H50       -14.5178   -3.8418   56.0515 H       1  ZINC000464867530    0.0700
     51 H51       -14.6484   -4.7669   57.5850 H       1  ZINC000464867530    0.0800
     52 H52       -14.8024   -1.7715   57.1323 H       1  ZINC000464867530    0.0800
     53 H53       -15.6588   -2.7753   58.3410 H       1  ZINC000464867530    0.0800
     54 H54       -14.5371   -0.9418   60.2253 H       1  ZINC000464867530    0.1200
     55 H55       -12.5308   -0.7301   61.6329 H       1  ZINC000464867530    0.1300
     56 H56       -10.4840   -1.9714   61.0518 H       1  ZINC000464867530    0.1300
     57 H57       -10.4485   -3.4215   59.0656 H       1  ZINC000464867530    0.1200
     58 H58       -11.5634   -1.5007   55.4622 H       1  ZINC000464867530    0.1000
     59 H59       -12.9510   -0.6783   54.7037 H       1  ZINC000464867530    0.0800
@<TRIPOS>BOND
     1     1     2    1
     2     1    33    1
     3     1    34    1
     4     1    35    1
     5     2     3    1
     6     2    36    1
     7     2    37    1
     8     3     4    1
     9     3    38    1
    10     3    39    1
    11     4     5    1
    12     4    10   am
    13     5     6    1
    14     5    40    1
    15     5    41    1
    16     6     7    1
    17     6     8    1
    18     6     9    1
    19    10    11    2
    20    10    12    1
    21    12    13    1
    22    12    32    1
    23    12    14    1
    24    14    15    1
    25    14    42    1
    26    14    43    1
    27    15    16    1
    28    15    44    1
    29    15    45    1
    30    16    17    1
    31    16    46    1
    32    16    47    1
    33    17    18   am
    34    17    32    1
    35    18    19    2
    36    18    20    1
    37    20    21    1
    38    20    23    1
    39    20    22    1
    40    22    23    1
    41    22    48    1
    42    22    49    1
    43    23    31    1
    44    23    24    1
    45    24    25    1
    46    24    50    1
    47    24    51    1
    48    25    26    1
    49    25    52    1
    50    25    53    1
    51    26    31   ar
    52    26    27   ar
    53    27    28   ar
    54    27    54    1
    55    28    29   ar
    56    28    55    1
    57    29    30   ar
    58    29    56    1
    59    30    31   ar
    60    30    57    1
    61    32    58    1
    62    32    59    1
@<TRIPOS>SUBSTRUCTURE
     1 ZINC000464867530        1 TEMP              0 ****  ****    0 ROOT


##########                                Name:    ZINC001077846158
##########                DOCK_Rotatable_Bonds:                   7
##########                         Heavy_Atoms:                  24
##########                    Molecular_Weight:             350.442
##########                DOCK_Rotatable_Bonds:                   7
##########                       Formal_Charge:          -0.0600002
##########                     HBond_Acceptors:                   8
##########                        HBond_Donors:                   2
##########                         Heavy_Atoms:                  24
##########                          Grid_Score:          -30.968376
##########                     Grid_vdw_energy:          -32.751392
##########                      Grid_es_energy:            1.783016
##########           Internal_energy_repulsive:            8.829213

@<TRIPOS>MOLECULE
ZINC001077846158
 46 48 1 0 0
SMALL
USER_CHARGES


@<TRIPOS>ATOM
      1 C1          1.2660    6.0295   44.0976 C.3     1  ZINC001077846158   -0.0700
      2 C2          0.7291    6.1781   45.4980 C.2     1  ZINC001077846158    0.0100
      3 C3          0.4448    5.1778   46.3483 C.2     1  ZINC001077846158   -0.0500
      4 C4          0.6031    3.7032   46.0807 C.3     1  ZINC001077846158    0.1300
      5 N5         -0.5268    2.9742   46.6723 N.3     1  ZINC001077846158   -0.5100
      6 C6         -0.6084    1.5920   46.1347 C.3     1  ZINC001077846158    0.0000
      7 C7         -1.4532    0.8471   47.1988 C.3     1  ZINC001077846158    0.1000
      8 H8         -2.5159    1.0401   47.0519 H       1  ZINC001077846158    0.0800
      9 O9         -1.1865   -0.5563   47.1644 O.3     1  ZINC001077846158   -0.5600
     10 C10        -0.9628    1.4687   48.5266 C.3     1  ZINC001077846158    0.1400
     11 H11        -0.2037    0.8340   48.9839 H       1  ZINC001077846158    0.1100
     12 N12        -2.0878    1.6573   49.4459 N.am    1  ZINC001077846158   -0.7000
     13 C13        -1.8790    2.1907   50.6659 C.2     1  ZINC001077846158    0.6000
     14 O14        -0.7564    2.5142   51.0042 O.2     1  ZINC001077846158   -0.5300
     15 C15        -3.0101    2.3820   51.5893 C.2     1  ZINC001077846158    0.0100
     16 C16        -2.9718    3.2335   52.6388 C.2     1  ZINC001077846158   -0.2300
     17 S17        -4.4706    3.1674   53.4580 S.3     1  ZINC001077846158    0.2300
     18 C18        -5.0618    2.0074   52.3529 C.2     1  ZINC001077846158    0.0300
     19 C19        -6.4371    1.3935   52.4065 C.3     1  ZINC001077846158   -0.0200
     20 C20        -7.4529    2.3646   51.8017 C.3     1  ZINC001077846158   -0.1500
     21 C21        -6.4438    0.0870   51.6105 C.3     1  ZINC001077846158   -0.1500
     22 N22        -4.1718    1.7346   51.4649 N.2     1  ZINC001077846158   -0.4500
     23 C23        -0.3566    2.8288   48.1343 C.3     1  ZINC001077846158    0.0300
     24 O24        -0.0083    5.7409   47.4855 O.3     1  ZINC001077846158   -0.2100
     25 C25         0.0049    7.0698   47.3169 C.2     1  ZINC001077846158    0.1800
     26 N26         0.4538    7.3362   46.1235 N.2     1  ZINC001077846158   -0.4900
     27 H27         2.3556    6.0253   44.1249 H       1  ZINC001077846158    0.0800
     28 H28         0.9097    5.0926   43.6694 H       1  ZINC001077846158    0.0700
     29 H29         0.9210    6.8630   43.4859 H       1  ZINC001077846158    0.0700
     30 H30         0.6243    3.5293   45.0049 H       1  ZINC001077846158    0.0600
     31 H31         1.5346    3.3515   46.5241 H       1  ZINC001077846158    0.1100
     32 H32        -1.1129    1.5842   45.1686 H       1  ZINC001077846158    0.0900
     33 H33         0.3851    1.1510   46.0547 H       1  ZINC001077846158    0.0600
     34 H34        -1.4423   -1.0252   47.9705 H       1  ZINC001077846158    0.3900
     35 H35        -2.9829    1.3983   49.1766 H       1  ZINC001077846158    0.4100
     36 H36        -2.1318    3.8539   52.9144 H       1  ZINC001077846158    0.1900
     37 H37        -6.7032    1.1886   53.4436 H       1  ZINC001077846158    0.1000
     38 H38        -7.4481    3.2955   52.3689 H       1  ZINC001077846158    0.0600
     39 H39        -7.1868    2.5696   50.7647 H       1  ZINC001077846158    0.0600
     40 H40        -8.4477    1.9206   51.8406 H       1  ZINC001077846158    0.0700
     41 H41        -5.7202   -0.6048   52.0414 H       1  ZINC001077846158    0.0600
     42 H42        -7.4386   -0.3570   51.6493 H       1  ZINC001077846158    0.0700
     43 H43        -6.1777    0.2920   50.5735 H       1  ZINC001077846158    0.0600
     44 H44         0.7031    2.8504   48.3887 H       1  ZINC001077846158    0.0600
     45 H45        -0.8816    3.6323   48.6509 H       1  ZINC001077846158    0.0900
     46 H46        -0.3019    7.8001   48.0510 H       1  ZINC001077846158    0.2500
@<TRIPOS>BOND
     1     1     2    1
     2     1    27    1
     3     1    28    1
     4     1    29    1
     5     2    26    1
     6     2     3    2
     7     3     4    1
     8     3    24    1
     9     4     5    1
    10     4    30    1
    11     4    31    1
    12     5    23    1
    13     5     6    1
    14     6     7    1
    15     6    32    1
    16     6    33    1
    17     7     8    1
    18     7     9    1
    19     7    10    1
    20     9    34    1
    21    10    11    1
    22    10    12    1
    23    10    23    1
    24    12    13   am
    25    12    35    1
    26    13    14    2
    27    13    15    1
    28    15    22    1
    29    15    16    2
    30    16    17    1
    31    16    36    1
    32    17    18    1
    33    18    19    1
    34    18    22    2
    35    19    20    1
    36    19    21    1
    37    19    37    1
    38    20    38    1
    39    20    39    1
    40    20    40    1
    41    21    41    1
    42    21    42    1
    43    21    43    1
    44    23    44    1
    45    23    45    1
    46    24    25    1
    47    25    26    2
    48    25    46    1
@<TRIPOS>SUBSTRUCTURE
     1 ZINC001077846158        1 TEMP              0 ****  ****    0 ROOT


##########                                Name:    ZINC001162683355
##########                DOCK_Rotatable_Bonds:                   5
##########                         Heavy_Atoms:                  25
##########                    Molecular_Weight:             336.437
##########                DOCK_Rotatable_Bonds:                   5
##########                       Formal_Charge:          -0.0100002
##########                     HBond_Acceptors:                   5
##########                        HBond_Donors:                   1
##########                         Heavy_Atoms:                  25
##########                          Grid_Score:          -30.966883
##########                     Grid_vdw_energy:          -29.519541
##########                      Grid_es_energy:           -1.447342
##########           Internal_energy_repulsive:            8.849807

@<TRIPOS>MOLECULE
ZINC001162683355
 49 52 1 0 0
SMALL
USER_CHARGES


@<TRIPOS>ATOM
      1 C1         -1.7644    4.5381   54.7380 C.3     1  ZINC001162683355    0.0200
      2 N2         -2.4194    4.1807   53.4727 N.3     1  ZINC001162683355   -0.5400
      3 C3         -3.1573    2.9156   53.6004 C.3     1  ZINC001162683355    0.0100
      4 C4         -3.8715    2.6121   52.2806 C.3     1  ZINC001162683355    0.0600
      5 O5         -2.9105    2.5741   51.2220 O.3     1  ZINC001162683355   -0.3800
      6 C6         -2.1740    3.7905   51.0691 C.3     1  ZINC001162683355    0.0800
      7 H7         -2.8596    4.6034   50.8296 H       1  ZINC001162683355    0.0700
      8 C8         -1.1550    3.6320   49.9389 C.3     1  ZINC001162683355    0.1500
      9 N9         -0.6377    2.2614   49.9363 N.pl3   1  ZINC001162683355   -0.7300
     10 C10        -0.4920    1.5755   48.7356 C.ar    1  ZINC001162683355    0.4300
     11 C11         0.6711    0.8427   48.4879 C.ar    1  ZINC001162683355   -0.0100
     12 C12         0.7856    0.1604   47.2629 C.ar    1  ZINC001162683355   -0.0400
     13 C13        -0.2697    0.2441   46.3447 C.ar    1  ZINC001162683355   -0.1800
     14 C14        -1.3692    0.9836   46.6707 C.ar    1  ZINC001162683355    0.1000
     15 N15        -1.4553    1.6179   47.8300 N.ar    1  ZINC001162683355   -0.5400
     16 C16         2.0847   -0.5049   47.2888 C.2     1  ZINC001162683355   -0.2200
     17 C17         2.6587   -0.1995   48.4662 C.2     1  ZINC001162683355    0.0800
     18 N18         1.8259    0.5998   49.1962 N.pl3   1  ZINC001162683355   -0.4600
     19 C19         2.1204    1.1253   50.5316 C.3     1  ZINC001162683355    0.1500
     20 C20         3.2869    0.3746   51.1208 C.ar    1  ZINC001162683355   -0.1100
     21 C21         4.4256    1.0579   51.5045 C.ar    1  ZINC001162683355   -0.1000
     22 C22         5.4939    0.3699   52.0489 C.ar    1  ZINC001162683355   -0.1200
     23 C23         5.4269   -1.0024   52.2011 C.ar    1  ZINC001162683355   -0.1100
     24 C24         4.2901   -1.6863   51.8125 C.ar    1  ZINC001162683355   -0.1200
     25 C25         3.2202   -0.9977   51.2721 C.ar    1  ZINC001162683355   -0.1000
     26 C26        -1.4426    4.1058   52.3766 C.3     1  ZINC001162683355    0.0300
     27 H27        -1.0137    3.7869   54.9834 H       1  ZINC001162683355    0.0300
     28 H28        -1.2847    5.5116   54.6366 H       1  ZINC001162683355    0.0700
     29 H29        -2.5089    4.5811   55.5331 H       1  ZINC001162683355    0.0700
     30 H30        -3.8923    3.0021   54.4005 H       1  ZINC001162683355    0.0900
     31 H31        -2.4605    2.1096   53.8308 H       1  ZINC001162683355    0.0500
     32 H32        -4.6065    3.3910   52.0771 H       1  ZINC001162683355    0.0600
     33 H33        -4.3736    1.6472   52.3512 H       1  ZINC001162683355    0.1000
     34 H34        -0.3321    4.3305   50.0911 H       1  ZINC001162683355    0.0700
     35 H35        -1.6365    3.8405   48.9836 H       1  ZINC001162683355    0.0800
     36 H36        -0.3969    1.8323   50.7723 H       1  ZINC001162683355    0.4000
     37 H37        -0.2139   -0.2680   45.3955 H       1  ZINC001162683355    0.1300
     38 H38        -2.1868    1.0527   45.9684 H       1  ZINC001162683355    0.1500
     39 H39         2.5067   -1.1214   46.5089 H       1  ZINC001162683355    0.1500
     40 H40         3.6327   -0.5379   48.7876 H       1  ZINC001162683355    0.1700
     41 H41         1.2472    1.0004   51.1720 H       1  ZINC001162683355    0.0900
     42 H42         2.3691    2.1840   50.4587 H       1  ZINC001162683355    0.0900
     43 H43         4.4795    2.1296   51.3821 H       1  ZINC001162683355    0.1200
     44 H44         6.3819    0.9042   52.3529 H       1  ZINC001162683355    0.1300
     45 H45         6.2626   -1.5402   52.6240 H       1  ZINC001162683355    0.1300
     46 H46         4.2379   -2.7584   51.9314 H       1  ZINC001162683355    0.1300
     47 H47         2.3321   -1.5320   50.9684 H       1  ZINC001162683355    0.1200
     48 H48        -0.7185    3.3189   52.5875 H       1  ZINC001162683355    0.0500
     49 H49        -0.9261    5.0611   52.2834 H       1  ZINC001162683355    0.0900
@<TRIPOS>BOND
     1     1     2    1
     2     1    27    1
     3     1    28    1
     4     1    29    1
     5     2    26    1
     6     2     3    1
     7     3     4    1
     8     3    30    1
     9     3    31    1
    10     4     5    1
    11     4    32    1
    12     4    33    1
    13     5     6    1
    14     6     7    1
    15     6     8    1
    16     6    26    1
    17     8     9    1
    18     8    34    1
    19     8    35    1
    20     9    10    1
    21     9    36    1
    22    10    15   ar
    23    10    11   ar
    24    11    18    1
    25    11    12   ar
    26    12    13   ar
    27    12    16    1
    28    13    14   ar
    29    13    37    1
    30    14    15   ar
    31    14    38    1
    32    16    17    2
    33    16    39    1
    34    17    18    1
    35    17    40    1
    36    18    19    1
    37    19    20    1
    38    19    41    1
    39    19    42    1
    40    20    25   ar
    41    20    21   ar
    42    21    22   ar
    43    21    43    1
    44    22    23   ar
    45    22    44    1
    46    23    24   ar
    47    23    45    1
    48    24    25   ar
    49    24    46    1
    50    25    47    1
    51    26    48    1
    52    26    49    1
@<TRIPOS>SUBSTRUCTURE
     1 ZINC001162683355        1 TEMP              0 ****  ****    0 ROOT


##########                                Name:    ZINC000846412382
##########                DOCK_Rotatable_Bonds:                   6
##########                         Heavy_Atoms:                  26
##########                    Molecular_Weight:             370.475
##########                DOCK_Rotatable_Bonds:                   6
##########                       Formal_Charge:               -0.03
##########                     HBond_Acceptors:                   7
##########                        HBond_Donors:                   4
##########                         Heavy_Atoms:                  26
##########                          Grid_Score:          -30.960495
##########                     Grid_vdw_energy:          -31.218582
##########                      Grid_es_energy:            0.258088
##########           Internal_energy_repulsive:           15.789572

@<TRIPOS>MOLECULE
ZINC000846412382
 48 50 1 0 0
SMALL
USER_CHARGES


@<TRIPOS>ATOM
      1 C1         -8.1803    2.6935   53.6978 C.3     1  ZINC000846412382   -0.1400
      2 C2         -7.3531    1.7842   52.8260 C.2     1  ZINC000846412382    0.0300
      3 C3         -7.8770    0.7214   52.2024 C.2     1  ZINC000846412382   -0.2700
      4 C4         -9.2853    0.3152   52.2848 C.2     1  ZINC000846412382    0.6000
      5 O5        -10.1618    1.0852   51.9395 O.2     1  ZINC000846412382   -0.5200
      6 N6         -9.6073   -0.9108   52.7428 N.am    1  ZINC000846412382   -0.7100
      7 C7        -11.0129   -1.3155   52.8266 C.3     1  ZINC000846412382    0.1200
      8 H8        -11.6449   -0.4283   52.8643 H       1  ZINC000846412382    0.1000
      9 C9        -11.3776   -2.1497   51.5968 C.3     1  ZINC000846412382   -0.1700
     10 C10       -11.2289   -2.1496   54.0909 C.3     1  ZINC000846412382    0.1700
     11 C11       -10.9263   -1.2951   55.3235 C.3     1  ZINC000846412382   -0.1400
     12 O12       -10.3564   -3.2812   54.0700 O.3     1  ZINC000846412382   -0.5500
     13 C13       -12.6598   -2.6194   54.1444 C.ar    1  ZINC000846412382   -0.1200
     14 C14       -13.6848   -1.7523   53.8148 C.ar    1  ZINC000846412382   -0.1100
     15 C15       -14.9973   -2.1833   53.8639 C.ar    1  ZINC000846412382   -0.1200
     16 C16       -15.2849   -3.4815   54.2419 C.ar    1  ZINC000846412382   -0.1200
     17 C17       -14.2598   -4.3488   54.5706 C.ar    1  ZINC000846412382   -0.1200
     18 C18       -12.9470   -3.9191   54.5174 C.ar    1  ZINC000846412382   -0.1000
     19 S19        -6.6479   -0.1191   51.2727 S.3     1  ZINC000846412382    0.2000
     20 C20        -5.4146    1.0313   51.7704 C.ar    1  ZINC000846412382    0.1400
     21 N21        -4.1111    1.1096   51.4796 N.ar    1  ZINC000846412382   -0.5300
     22 C22        -3.3635    2.0713   51.9708 C.ar    1  ZINC000846412382    0.3900
     23 C23        -1.9009    2.1128   51.6105 C.3     1  ZINC000846412382   -0.0900
     24 N24        -3.8508    3.0034   52.7694 N.ar    1  ZINC000846412382   -0.5800
     25 C25        -5.1289    3.0128   53.1162 C.ar    1  ZINC000846412382    0.5100
     26 N26        -5.6213    3.9947   53.9519 N.pl3   1  ZINC000846412382   -0.8300
     27 C27        -5.9879    1.9972   52.6091 C.ar    1  ZINC000846412382   -0.2500
     28 H28        -8.5212    3.5471   53.1120 H       1  ZINC000846412382    0.0800
     29 H29        -9.0427    2.1462   54.0783 H       1  ZINC000846412382    0.1100
     30 H30        -7.5752    3.0446   54.5337 H       1  ZINC000846412382    0.0700
     31 H31        -8.9086   -1.5252   53.0169 H       1  ZINC000846412382    0.4000
     32 H32       -10.7456   -3.0370   51.5593 H       1  ZINC000846412382    0.0600
     33 H33       -12.4233   -2.4508   51.6592 H       1  ZINC000846412382    0.0800
     34 H34       -11.2236   -1.5555   50.6961 H       1  ZINC000846412382    0.0700
     35 H35       -11.5918   -0.4320   55.3395 H       1  ZINC000846412382    0.0700
     36 H36       -11.0802   -1.8893   56.2242 H       1  ZINC000846412382    0.0700
     37 H37        -9.8914   -0.9553   55.2848 H       1  ZINC000846412382    0.0700
     38 H38       -10.6430   -3.9877   53.4751 H       1  ZINC000846412382    0.3800
     39 H39       -13.4600   -0.7381   53.5195 H       1  ZINC000846412382    0.1300
     40 H40       -15.7981   -1.5057   53.6072 H       1  ZINC000846412382    0.1200
     41 H41       -16.3103   -3.8179   54.2810 H       1  ZINC000846412382    0.1200
     42 H42       -14.4845   -5.3629   54.8663 H       1  ZINC000846412382    0.1200
     43 H43       -12.1462   -4.5967   54.7742 H       1  ZINC000846412382    0.1300
     44 H44        -1.7657    2.7085   50.7078 H       1  ZINC000846412382    0.0900
     45 H45        -1.3376    2.5608   52.4292 H       1  ZINC000846412382    0.0900
     46 H46        -1.5412    1.0991   51.4341 H       1  ZINC000846412382    0.0900
     47 H47        -5.0192    4.4800   54.5374 H       1  ZINC000846412382    0.4100
     48 H48        -6.5694    4.1994   53.9535 H       1  ZINC000846412382    0.4200
@<TRIPOS>BOND
     1     1     2    1
     2     1    28    1
     3     1    29    1
     4     1    30    1
     5     2    27    1
     6     2     3    2
     7     3     4    1
     8     3    19    1
     9     4     5    2
    10     4     6   am
    11     6     7    1
    12     6    31    1
    13     7     8    1
    14     7     9    1
    15     7    10    1
    16     9    32    1
    17     9    33    1
    18     9    34    1
    19    10    11    1
    20    10    12    1
    21    10    13    1
    22    11    35    1
    23    11    36    1
    24    11    37    1
    25    12    38    1
    26    13    18   ar
    27    13    14   ar
    28    14    15   ar
    29    14    39    1
    30    15    16   ar
    31    15    40    1
    32    16    17   ar
    33    16    41    1
    34    17    18   ar
    35    17    42    1
    36    18    43    1
    37    19    20    1
    38    20    27   ar
    39    20    21   ar
    40    21    22   ar
    41    22    23    1
    42    22    24   ar
    43    23    44    1
    44    23    45    1
    45    23    46    1
    46    24    25   ar
    47    25    26    1
    48    25    27   ar
    49    26    47    1
    50    26    48    1
@<TRIPOS>SUBSTRUCTURE
     1 ZINC000846412382        1 TEMP              0 ****  ****    0 ROOT


##########                                Name:    ZINC000006915700
##########                DOCK_Rotatable_Bonds:                   5
##########                         Heavy_Atoms:                  26
##########                    Molecular_Weight:             369.447
##########                DOCK_Rotatable_Bonds:                   5
##########                       Formal_Charge:        -1.04308e-07
##########                     HBond_Acceptors:                   8
##########                        HBond_Donors:                   1
##########                         Heavy_Atoms:                  26
##########                          Grid_Score:          -30.960489
##########                     Grid_vdw_energy:          -29.465412
##########                      Grid_es_energy:           -1.495077
##########           Internal_energy_repulsive:            3.244995

@<TRIPOS>MOLECULE
ZINC000006915700
 45 48 1 0 0
SMALL
USER_CHARGES


@<TRIPOS>ATOM
      1 C1         -4.5922    3.8097   53.5673 C.3     1  <0>        -0.1200
      2 C2         -3.4602    3.2226   52.7641 C.ar    1  <0>        -0.0500
      3 C3         -2.1676    3.6735   52.9638 C.ar    1  <0>        -0.1300
      4 C4         -1.1269    3.1396   52.2318 C.ar    1  <0>        -0.0600
      5 C5         -1.3804    2.1435   51.2887 C.ar    1  <0>        -0.0700
      6 C6         -0.2679    1.5659   50.5000 C.2     1  <0>         0.4400
      7 N7          0.8689    1.2536   51.1084 N.2     1  <0>        -0.5200
      8 C8          1.8814    0.7313   50.4098 C.2     1  <0>         0.3600
      9 C9          3.1594    0.3132   50.7577 C.2     1  <0>        -0.3200
     10 C10         3.7842   -0.1527   49.5998 C.2     1  <0>         0.5500
     11 O11         4.9181   -0.5985   49.5311 O.2     1  <0>        -0.5200
     12 N12         2.9235   -0.0276   48.5708 N.am    1  <0>        -0.5000
     13 N13         1.7318    0.5214   49.0544 N.pl3   1  <0>        -0.3300
     14 C14         0.5496    0.8531   48.4580 C.2     1  <0>         0.3900
     15 S15         0.3247    0.5982   46.7290 S.3     1  <0>         0.1200
     16 C16         0.1584    2.3141   46.1775 C.3     1  <0>        -0.1500
     17 C17         1.4686    2.7855   45.6009 C.2     1  <0>         0.5500
     18 O18         2.4640    2.1028   45.7194 O.2     1  <0>        -0.5200
     19 N19         1.5341    3.9659   44.9538 N.am    1  <0>        -0.6100
     20 C20         2.7405    4.5419   44.3418 C.3     1  <0>         0.0900
     21 C21         2.3431    5.9075   43.7430 C.3     1  <0>        -0.1300
     22 C22         1.0679    6.2805   44.5442 C.3     1  <0>        -0.1400
     23 C23         0.4065    4.8906   44.7368 C.3     1  <0>         0.1000
     24 N24        -0.4283    1.3634   49.1901 N.2     1  <0>        -0.5600
     25 C25        -2.6859    1.6931   51.0921 C.ar    1  <0>        -0.0500
     26 C26        -3.7173    2.2311   51.8340 C.ar    1  <0>        -0.1300
     27 H27        -4.7228    3.2355   54.4846 H       1  <0>         0.0800
     28 H28        -4.3618    4.8454   53.8168 H       1  <0>         0.0700
     29 H29        -5.5108    3.7726   52.9817 H       1  <0>         0.0700
     30 H30        -1.9727    4.4450   53.6939 H       1  <0>         0.1300
     31 H31        -0.1183    3.4926   52.3883 H       1  <0>         0.1300
     32 H32         3.5923    0.3436   51.7467 H       1  <0>         0.1800
     33 H33         3.1004   -0.2765   47.6501 H       1  <0>         0.4400
     34 H34        -0.6177    2.3769   45.4148 H       1  <0>         0.1400
     35 H35        -0.1131    2.9435   47.0249 H       1  <0>         0.1400
     36 H36         3.5112    4.6797   45.1001 H       1  <0>         0.0800
     37 H37         3.1065    3.8839   43.5536 H       1  <0>         0.0800
     38 H38         3.1302    6.6438   43.9062 H       1  <0>         0.0900
     39 H39         2.1171    5.8119   42.6810 H       1  <0>         0.0800
     40 H40         1.3265    6.7301   45.5030 H       1  <0>         0.0800
     41 H41         0.4225    6.9417   43.9660 H       1  <0>         0.0900
     42 H42        -0.1543    4.6106   43.8451 H       1  <0>         0.0800
     43 H43        -0.2463    4.8988   45.6096 H       1  <0>         0.0800
     44 H44        -2.8884    0.9221   50.3633 H       1  <0>         0.1400
     45 H45        -4.7285    1.8831   51.6829 H       1  <0>         0.1300
@<TRIPOS>BOND
     1     1     2    1
     2     1    27    1
     3     1    28    1
     4     1    29    1
     5     2    26   ar
     6     2     3   ar
     7     3     4   ar
     8     3    30    1
     9     4     5   ar
    10     4    31    1
    11     5     6    1
    12     5    25   ar
    13     6    24    1
    14     6     7    2
    15     7     8    1
    16     8    13    1
    17     8     9    2
    18     9    10    1
    19     9    32    1
    20    10    11    2
    21    10    12   am
    22    12    13    1
    23    12    33    1
    24    13    14    1
    25    14    15    1
    26    14    24    2
    27    15    16    1
    28    16    17    1
    29    16    34    1
    30    16    35    1
    31    17    18    2
    32    17    19   am
    33    19    23    1
    34    19    20    1
    35    20    21    1
    36    20    36    1
    37    20    37    1
    38    21    22    1
    39    21    38    1
    40    21    39    1
    41    22    23    1
    42    22    40    1
    43    22    41    1
    44    23    42    1
    45    23    43    1
    46    25    26   ar
    47    25    44    1
    48    26    45    1
@<TRIPOS>SUBSTRUCTURE
     1 <0>         1 TEMP              0 ****  ****    0 ROOT


##########                                Name:    ZINC000668548901
##########                DOCK_Rotatable_Bonds:                   9
##########                         Heavy_Atoms:                  26
##########                    Molecular_Weight:             374.464
##########                DOCK_Rotatable_Bonds:                   9
##########                       Formal_Charge:         3.53903e-07
##########                     HBond_Acceptors:                   8
##########                        HBond_Donors:                   3
##########                         Heavy_Atoms:                  26
##########                          Grid_Score:          -30.956505
##########                     Grid_vdw_energy:          -30.285652
##########                      Grid_es_energy:           -0.670852
##########           Internal_energy_repulsive:           13.233466

@<TRIPOS>MOLECULE
ZINC000668548901
 48 50 1 0 0
SMALL
USER_CHARGES


@<TRIPOS>ATOM
      1 O1        -11.0967   -3.1811   58.6425 O.2     1  ZINC000668548901   -0.5700
      2 C2        -11.9779   -2.3592   58.8046 C.2     1  ZINC000668548901    0.7100
      3 N3        -13.0941   -2.4106   58.0510 N.am    1  ZINC000668548901   -0.6800
      4 C4        -13.2361   -3.4039   57.0809 C.ar    1  ZINC000668548901    0.2200
      5 C5        -14.0383   -4.5221   57.3143 C.ar    1  ZINC000668548901   -0.1700
      6 C6        -14.1552   -5.4836   56.3335 C.ar    1  ZINC000668548901    0.1200
      7 N7        -13.5205   -5.3596   55.1827 N.ar    1  ZINC000668548901   -0.4300
      8 C8        -12.7489   -4.3141   54.9199 C.ar    1  ZINC000668548901    0.1100
      9 S9        -11.9280   -4.2051   53.3646 S.3     1  ZINC000668548901    0.0900
     10 C10       -12.7953   -2.9063   52.5487 C.ar    1  ZINC000668548901    0.0900
     11 C11       -12.0916   -1.8159   52.0477 C.ar    1  ZINC000668548901   -0.1500
     12 C12       -12.7852   -0.8036   51.4090 C.ar    1  ZINC000668548901   -0.0700
     13 C13       -14.1643   -0.9163   51.2925 C.ar    1  ZINC000668548901   -0.1700
     14 C14       -14.7987   -2.0269   51.8133 C.ar    1  ZINC000668548901    0.1000
     15 N15       -14.1110   -2.9796   52.4131 N.ar    1  ZINC000668548901   -0.4200
     16 C16       -12.5862   -3.3011   55.8554 C.ar    1  ZINC000668548901   -0.1800
     17 N17       -11.8408   -1.4000   59.7414 N.am    1  ZINC000668548901   -0.7200
     18 C18       -10.6275   -1.3442   60.5604 C.3     1  ZINC000668548901    0.1700
     19 H19       -10.1313   -2.3146   60.5414 H       1  ZINC000668548901    0.1000
     20 C20       -11.0006   -0.9903   62.0014 C.3     1  ZINC000668548901    0.0600
     21 O21        -9.8103   -0.7979   62.7682 O.3     1  ZINC000668548901   -0.5700
     22 C22        -9.6834   -0.2777   60.0013 C.3     1  ZINC000668548901   -0.1300
     23 H23        -8.8476   -0.1361   60.6864 H       1  ZINC000668548901    0.1000
     24 C24       -10.4420    1.0431   59.8391 C.3     1  ZINC000668548901   -0.1200
     25 C25        -9.5091    2.0805   59.2069 C.3     1  ZINC000668548901   -0.1600
     26 C26        -8.9893    1.5413   57.8716 C.3     1  ZINC000668548901    0.0600
     27 O27        -8.3214    0.2969   58.0896 O.3     1  ZINC000668548901   -0.3800
     28 C28        -9.1557   -0.7266   58.6362 C.3     1  ZINC000668548901    0.0700
     29 H29       -13.7989   -1.7573   58.1830 H       1  ZINC000668548901    0.4100
     30 H30       -14.5610   -4.6329   58.2530 H       1  ZINC000668548901    0.1500
     31 H31       -14.7747   -6.3507   56.5092 H       1  ZINC000668548901    0.1600
     32 H32       -11.0186   -1.7602   52.1562 H       1  ZINC000668548901    0.1400
     33 H33       -12.2658    0.0553   51.0104 H       1  ZINC000668548901    0.1400
     34 H34       -14.7350   -0.1432   50.7998 H       1  ZINC000668548901    0.1400
     35 H35       -15.8711   -2.1184   51.7252 H       1  ZINC000668548901    0.1600
     36 H36       -11.9570   -2.4506   55.6385 H       1  ZINC000668548901    0.1400
     37 H37       -12.5455   -0.7467   59.8733 H       1  ZINC000668548901    0.4000
     38 H38       -11.5901   -0.0735   62.0093 H       1  ZINC000668548901    0.0500
     39 H39       -11.5851   -1.8017   62.4351 H       1  ZINC000668548901    0.0600
     40 H40        -9.2606   -1.5896   62.8466 H       1  ZINC000668548901    0.3800
     41 H41       -11.3074    0.8898   59.1943 H       1  ZINC000668548901    0.0700
     42 H42       -10.7717    1.3966   60.8161 H       1  ZINC000668548901    0.0700
     43 H43       -10.0570    3.0074   59.0368 H       1  ZINC000668548901    0.0800
     44 H44        -8.6691    2.2703   59.8749 H       1  ZINC000668548901    0.0700
     45 H45        -9.8263    1.3901   57.1900 H       1  ZINC000668548901    0.0500
     46 H46        -8.2914    2.2573   57.4374 H       1  ZINC000668548901    0.1000
     47 H47        -8.5776   -1.6435   58.7518 H       1  ZINC000668548901    0.1000
     48 H48        -9.9952   -0.9081   57.9652 H       1  ZINC000668548901    0.0500
@<TRIPOS>BOND
     1     1     2    2
     2     2     3   am
     3     2    17   am
     4     3     4    1
     5     3    29    1
     6     4    16   ar
     7     4     5   ar
     8     5     6   ar
     9     5    30    1
    10     6     7   ar
    11     6    31    1
    12     7     8   ar
    13     8     9    1
    14     8    16   ar
    15     9    10    1
    16    10    15   ar
    17    10    11   ar
    18    11    12   ar
    19    11    32    1
    20    12    13   ar
    21    12    33    1
    22    13    14   ar
    23    13    34    1
    24    14    15   ar
    25    14    35    1
    26    16    36    1
    27    17    18    1
    28    17    37    1
    29    18    19    1
    30    18    20    1
    31    18    22    1
    32    20    21    1
    33    20    38    1
    34    20    39    1
    35    21    40    1
    36    22    23    1
    37    22    28    1
    38    22    24    1
    39    24    25    1
    40    24    41    1
    41    24    42    1
    42    25    26    1
    43    25    43    1
    44    25    44    1
    45    26    27    1
    46    26    45    1
    47    26    46    1
    48    27    28    1
    49    28    47    1
    50    28    48    1
@<TRIPOS>SUBSTRUCTURE
     1 ZINC000668548901        1 TEMP              0 ****  ****    0 ROOT


##########                                Name:    ZINC000433533595
##########                DOCK_Rotatable_Bonds:                  10
##########                         Heavy_Atoms:                  24
##########                    Molecular_Weight:             397.312
##########                DOCK_Rotatable_Bonds:                  10
##########                       Formal_Charge:          0.00999916
##########                     HBond_Acceptors:                   5
##########                        HBond_Donors:                   1
##########                         Heavy_Atoms:                  24
##########                          Grid_Score:          -30.944569
##########                     Grid_vdw_energy:          -28.789814
##########                      Grid_es_energy:           -2.154754
##########           Internal_energy_repulsive:           16.459484

@<TRIPOS>MOLECULE
ZINC000433533595
 49 50 1 0 0
SMALL
USER_CHARGES


@<TRIPOS>ATOM
      1 C1          1.8401    0.3322   46.6278 C.3     1  ZINC000433533595   -0.1500
      2 C2          1.4491    0.8759   48.0034 C.3     1  ZINC000433533595   -0.1200
      3 C3          1.9467    2.3160   48.1430 C.3     1  ZINC000433533595   -0.1300
      4 C4          1.6418    2.8266   49.5526 C.3     1  ZINC000433533595    0.1000
      5 N5          0.1933    2.8197   49.7718 N.am    1  ZINC000433533595   -0.5500
      6 C6         -0.3709    1.8492   50.5177 C.2     1  ZINC000433533595    0.5100
      7 O7          0.3211    0.9809   51.0076 O.2     1  ZINC000433533595   -0.5100
      8 C8         -1.8474    1.8422   50.7411 C.2     1  ZINC000433533595    0.5000
      9 O9         -2.6032    1.7200   49.7991 O.2     1  ZINC000433533595   -0.4900
     10 N10        -2.3408    1.9717   51.9885 N.am    1  ZINC000433533595   -0.6300
     11 C11        -3.7237    1.9652   52.1979 C.ar    1  ZINC000433533595    0.1200
     12 C12        -4.4672    0.8323   51.8993 C.ar    1  ZINC000433533595   -0.0600
     13 C13        -5.8343    0.8286   52.1072 C.ar    1  ZINC000433533595   -0.1100
     14 Br14       -6.8461   -0.7162   51.7003 Br      1  ZINC000433533595   -0.0400
     15 C15        -6.4633    1.9523   52.6126 C.ar    1  ZINC000433533595   -0.0600
     16 C16        -5.7287    3.0848   52.9124 C.ar    1  ZINC000433533595   -0.1900
     17 C17        -4.3581    3.0948   52.7125 C.ar    1  ZINC000433533595    0.1300
     18 O18        -3.6347    4.2079   53.0071 O.3     1  ZINC000433533595   -0.3100
     19 C19        -3.5093    4.5536   54.3879 C.3     1  ZINC000433533595    0.0800
     20 C20        -2.3755    3.7408   55.0162 C.3     1  ZINC000433533595   -0.1500
     21 C21        -3.1971    6.0462   54.5136 C.3     1  ZINC000433533595   -0.1800
     22 C22        -0.6419    3.8679   49.1803 C.3     1  ZINC000433533595    0.0600
     23 C23        -1.3247    4.8497   50.1347 C.3     1  ZINC000433533595   -0.1900
     24 C24        -0.1418    5.3104   49.2808 C.3     1  ZINC000433533595   -0.1800
     25 H25         2.9249    0.3534   46.5236 H       1  ZINC000433533595    0.0500
     26 H26         1.4856   -0.6937   46.5285 H       1  ZINC000433533595    0.0500
     27 H27         1.3883    0.9496   45.8514 H       1  ZINC000433533595    0.0500
     28 H28         0.3643    0.8546   48.1077 H       1  ZINC000433533595    0.0700
     29 H29         1.9009    0.2585   48.7800 H       1  ZINC000433533595    0.0600
     30 H30         3.0224    2.3470   47.9700 H       1  ZINC000433533595    0.0600
     31 H31         1.4426    2.9470   47.4111 H       1  ZINC000433533595    0.0700
     32 H32         2.1232    2.1792   50.2856 H       1  ZINC000433533595    0.1100
     33 H33         2.0209    3.8427   49.6609 H       1  ZINC000433533595    0.0800
     34 H34        -1.7368    2.0695   52.7412 H       1  ZINC000433533595    0.4300
     35 H35        -3.9784   -0.0460   51.5043 H       1  ZINC000433533595    0.1600
     36 H36        -7.5314    1.9451   52.7731 H       1  ZINC000433533595    0.1400
     37 H37        -6.2231    3.9602   53.3068 H       1  ZINC000433533595    0.1500
     38 H38        -4.4437    4.3332   54.9040 H       1  ZINC000433533595    0.0800
     39 H39        -1.4412    3.9613   54.5001 H       1  ZINC000433533595    0.0700
     40 H40        -2.2799    4.0045   56.0695 H       1  ZINC000433533595    0.0800
     41 H41        -2.5979    2.6774   54.9266 H       1  ZINC000433533595    0.0700
     42 H42        -2.2627    6.2666   53.9975 H       1  ZINC000433533595    0.0700
     43 H43        -4.0048    6.6253   54.0660 H       1  ZINC000433533595    0.0600
     44 H44        -3.1014    6.3099   55.5669 H       1  ZINC000433533595    0.0800
     45 H45        -1.1829    3.5845   48.2775 H       1  ZINC000433533595    0.1400
     46 H46        -2.3153    5.2122   49.8599 H       1  ZINC000433533595    0.0900
     47 H47        -1.1525    4.7157   51.2026 H       1  ZINC000433533595    0.1400
     48 H48         0.8087    5.4794   49.7869 H       1  ZINC000433533595    0.1000
     49 H49        -0.3541    5.9761   48.4441 H       1  ZINC000433533595    0.1000
@<TRIPOS>BOND
     1     1     2    1
     2     1    25    1
     3     1    26    1
     4     1    27    1
     5     2     3    1
     6     2    28    1
     7     2    29    1
     8     3     4    1
     9     3    30    1
    10     3    31    1
    11     4     5    1
    12     4    32    1
    13     4    33    1
    14     5     6   am
    15     5    22    1
    16     6     7    2
    17     6     8    1
    18     8     9    2
    19     8    10   am
    20    10    11    1
    21    10    34    1
    22    11    17   ar
    23    11    12   ar
    24    12    13   ar
    25    12    35    1
    26    13    14    1
    27    13    15   ar
    28    15    16   ar
    29    15    36    1
    30    16    17   ar
    31    16    37    1
    32    17    18    1
    33    18    19    1
    34    19    20    1
    35    19    21    1
    36    19    38    1
    37    20    39    1
    38    20    40    1
    39    20    41    1
    40    21    42    1
    41    21    43    1
    42    21    44    1
    43    22    24    1
    44    22    23    1
    45    22    45    1
    46    23    24    1
    47    23    46    1
    48    23    47    1
    49    24    48    1
    50    24    49    1
@<TRIPOS>SUBSTRUCTURE
     1 ZINC000433533595        1 TEMP              0 ****  ****    0 ROOT


##########                                Name:    ZINC000558052810
##########                DOCK_Rotatable_Bonds:                   9
##########                         Heavy_Atoms:                  30
##########                    Molecular_Weight:             424.524
##########                DOCK_Rotatable_Bonds:                   9
##########                       Formal_Charge:          -0.0200002
##########                     HBond_Acceptors:                   8
##########                        HBond_Donors:                   1
##########                         Heavy_Atoms:                  30
##########                          Grid_Score:          -30.941547
##########                     Grid_vdw_energy:          -29.984402
##########                      Grid_es_energy:           -0.957146
##########           Internal_energy_repulsive:           14.865682

@<TRIPOS>MOLECULE
ZINC000558052810
 54 56 1 0 0
SMALL
USER_CHARGES


@<TRIPOS>ATOM
      1 C1        -13.7211   -1.4754   55.2128 C.3     1  ZINC000558052810   -0.1700
      2 C2        -13.3762   -2.1242   53.8708 C.3     1  ZINC000558052810    0.1100
      3 N3        -11.9442   -1.9654   53.6054 N.am    1  ZINC000558052810   -0.6100
      4 C4        -11.0109   -3.0392   53.9551 C.3     1  ZINC000558052810    0.0700
      5 C5        -11.4855   -0.8316   53.0395 C.2     1  ZINC000558052810    0.5600
      6 O6        -12.2598    0.0593   52.7491 O.2     1  ZINC000558052810   -0.5300
      7 C7        -10.0401   -0.6713   52.7716 C.ar    1  ZINC000558052810   -0.1100
      8 C8         -9.4239   -1.4312   51.7761 C.ar    1  ZINC000558052810   -0.1100
      9 C9         -8.0746   -1.2798   51.5281 C.ar    1  ZINC000558052810   -0.1000
     10 C10        -7.3292   -0.3774   52.2630 C.ar    1  ZINC000558052810   -0.1300
     11 C11        -7.9332    0.3837   53.2569 C.ar    1  ZINC000558052810    0.1400
     12 N12        -7.1742    1.2953   53.9983 N.am    1  ZINC000558052810   -0.6600
     13 C13        -7.0134    2.5574   53.5536 C.2     1  ZINC000558052810    0.5600
     14 O14        -7.5283    2.9037   52.5076 O.2     1  ZINC000558052810   -0.4800
     15 C15        -6.2138    3.5176   54.3346 C.ar    1  ZINC000558052810   -0.1900
     16 C16        -6.7680    4.1745   55.4391 C.ar    1  ZINC000558052810   -0.0200
     17 C17        -5.9755    5.0668   56.1392 C.ar    1  ZINC000558052810   -0.1900
     18 C18        -4.6707    5.2837   55.7333 C.ar    1  ZINC000558052810    0.1500
     19 N19        -4.1659    4.6557   54.6897 N.ar    1  ZINC000558052810   -0.4900
     20 C20        -4.8777    3.7867   53.9873 C.ar    1  ZINC000558052810    0.1600
     21 S21        -4.1520    2.9762   52.6012 S.3     1  ZINC000558052810    0.0600
     22 C22        -2.4907    3.6929   52.6524 C.3     1  ZINC000558052810   -0.0700
     23 C23        -2.0009    3.9267   51.2465 C.2     1  ZINC000558052810   -0.2000
     24 C24        -1.7307    5.1089   50.6432 C.2     1  ZINC000558052810   -0.0100
     25 C25        -1.8616    6.4821   51.2500 C.3     1  ZINC000558052810   -0.0800
     26 O26        -1.3242    4.8163   49.3999 O.3     1  ZINC000558052810    0.1000
     27 N27        -1.3224    3.6233   49.2020 N.2     1  ZINC000558052810   -0.3600
     28 C28        -1.7107    2.9625   50.2541 C.2     1  ZINC000558052810    0.0300
     29 C29        -1.8356    1.4664   50.3851 C.3     1  ZINC000558052810   -0.0800
     30 C30        -9.2891    0.2440   53.5092 C.ar    1  ZINC000558052810   -0.0700
     31 H31       -13.1490   -1.9560   56.0065 H       1  ZINC000558052810    0.0600
     32 H32       -13.4736   -0.4145   55.1778 H       1  ZINC000558052810    0.0600
     33 H33       -14.7866   -1.5936   55.4103 H       1  ZINC000558052810    0.0700
     34 H34       -13.6238   -3.1851   53.9059 H       1  ZINC000558052810    0.0800
     35 H35       -13.9483   -1.6436   53.0772 H       1  ZINC000558052810    0.0800
     36 H36       -10.9707   -3.7646   53.1426 H       1  ZINC000558052810    0.0600
     37 H37       -10.0182   -2.6193   54.1170 H       1  ZINC000558052810    0.0800
     38 H38       -11.3496   -3.5326   54.8662 H       1  ZINC000558052810    0.0700
     39 H39       -10.0029   -2.1380   51.2002 H       1  ZINC000558052810    0.1400
     40 H40        -7.5997   -1.8688   50.7574 H       1  ZINC000558052810    0.1400
     41 H41        -6.2736   -0.2637   52.0646 H       1  ZINC000558052810    0.1300
     42 H42        -6.7634    1.0191   54.8325 H       1  ZINC000558052810    0.4100
     43 H43        -7.7895    3.9896   55.7374 H       1  ZINC000558052810    0.1400
     44 H44        -6.3727    5.5905   56.9962 H       1  ZINC000558052810    0.1500
     45 H45        -4.0542    5.9808   56.2815 H       1  ZINC000558052810    0.1700
     46 H46        -2.5205    4.6411   53.1891 H       1  ZINC000558052810    0.1000
     47 H47        -1.8148    3.0072   53.1634 H       1  ZINC000558052810    0.1000
     48 H48        -0.9214    6.7598   51.7266 H       1  ZINC000558052810    0.0900
     49 H49        -2.0996    7.2035   50.4683 H       1  ZINC000558052810    0.0900
     50 H50        -2.6582    6.4763   51.9939 H       1  ZINC000558052810    0.0900
     51 H51        -0.8924    1.0528   50.7423 H       1  ZINC000558052810    0.0800
     52 H52        -2.6284    1.2287   51.0944 H       1  ZINC000558052810    0.0800
     53 H53        -2.0764    1.0353   49.4133 H       1  ZINC000558052810    0.0800
     54 H54        -9.7604    0.8347   54.2808 H       1  ZINC000558052810    0.1500
@<TRIPOS>BOND
     1     1     2    1
     2     1    31    1
     3     1    32    1
     4     1    33    1
     5     2     3    1
     6     2    34    1
     7     2    35    1
     8     3     4    1
     9     3     5   am
    10     4    36    1
    11     4    37    1
    12     4    38    1
    13     5     6    2
    14     5     7    1
    15     7    30   ar
    16     7     8   ar
    17     8     9   ar
    18     8    39    1
    19     9    10   ar
    20     9    40    1
    21    10    11   ar
    22    10    41    1
    23    11    12    1
    24    11    30   ar
    25    12    13   am
    26    12    42    1
    27    13    14    2
    28    13    15    1
    29    15    20   ar
    30    15    16   ar
    31    16    17   ar
    32    16    43    1
    33    17    18   ar
    34    17    44    1
    35    18    19   ar
    36    18    45    1
    37    19    20   ar
    38    20    21    1
    39    21    22    1
    40    22    23    1
    41    22    46    1
    42    22    47    1
    43    23    28    1
    44    23    24    2
    45    24    25    1
    46    24    26    1
    47    25    48    1
    48    25    49    1
    49    25    50    1
    50    26    27    1
    51    27    28    2
    52    28    29    1
    53    29    51    1
    54    29    52    1
    55    29    53    1
    56    30    54    1
@<TRIPOS>SUBSTRUCTURE
     1 ZINC000558052810        1 TEMP              0 ****  ****    0 ROOT


##########                                Name:    ZINC001347442583
##########                DOCK_Rotatable_Bonds:                   9
##########                         Heavy_Atoms:                  27
##########                    Molecular_Weight:             370.492
##########                DOCK_Rotatable_Bonds:                   9
##########                       Formal_Charge:          -0.0400009
##########                     HBond_Acceptors:                   5
##########                        HBond_Donors:                   1
##########                         Heavy_Atoms:                  27
##########                          Grid_Score:          -30.918179
##########                     Grid_vdw_energy:          -30.173977
##########                      Grid_es_energy:           -0.744201
##########           Internal_energy_repulsive:           13.058349

@<TRIPOS>MOLECULE
ZINC001347442583
 57 60 1 0 0
SMALL
USER_CHARGES


@<TRIPOS>ATOM
      1 O1         -7.6410   -1.7208   52.0953 O.2     1  ZINC001347442583   -0.5400
      2 C2         -8.3014   -0.7908   52.5076 C.2     1  ZINC001347442583    0.5400
      3 C3         -7.6487    0.5443   52.7579 C.3     1  ZINC001347442583   -0.1400
      4 C4         -6.2283    0.5322   52.1893 C.3     1  ZINC001347442583   -0.1000
      5 C5         -5.5664    1.8883   52.4419 C.3     1  ZINC001347442583   -0.1100
      6 C6         -4.1690    1.8975   51.8186 C.3     1  ZINC001347442583   -0.0800
      7 C7         -3.4713    3.1866   52.1689 C.ar    1  ZINC001347442583   -0.0800
      8 C8         -2.8259    3.9127   51.1854 C.ar    1  ZINC001347442583   -0.1200
      9 C9         -2.1860    5.0951   51.5068 C.ar    1  ZINC001347442583   -0.1200
     10 C10        -2.1918    5.5517   52.8115 C.ar    1  ZINC001347442583   -0.1300
     11 C11        -2.8380    4.8261   53.7948 C.ar    1  ZINC001347442583   -0.1200
     12 C12        -3.4817    3.6459   53.4726 C.ar    1  ZINC001347442583   -0.1200
     13 N13        -9.6200   -0.9497   52.7366 N.am    1  ZINC001347442583   -0.6300
     14 C14       -10.5078   -2.1507   52.5736 C.3     1  ZINC001347442583    0.1200
     15 H15       -10.0224   -3.0539   52.2041 H       1  ZINC001347442583    0.1200
     16 C16       -11.6312   -1.5703   51.6627 C.3     1  ZINC001347442583   -0.1300
     17 C17       -11.7313   -0.0917   52.1121 C.3     1  ZINC001347442583   -0.1300
     18 C18       -10.6533    0.0180   53.2396 C.3     1  ZINC001347442583    0.1200
     19 H19       -10.2965    1.0256   53.4526 H       1  ZINC001347442583    0.1200
     20 C20       -11.2563   -0.7523   54.4528 C.3     1  ZINC001347442583    0.1300
     21 H21       -12.2934   -0.4595   54.6166 H       1  ZINC001347442583    0.1100
     22 N22       -10.4592   -0.5196   55.6598 N.am    1  ZINC001347442583   -0.7200
     23 C23       -11.0718   -0.2832   56.8367 C.2     1  ZINC001347442583    0.5300
     24 O24       -12.2830   -0.2646   56.8969 O.2     1  ZINC001347442583   -0.5300
     25 C25       -10.2518   -0.0420   58.0779 C.3     1  ZINC001347442583   -0.1500
     26 H26       -10.7967    0.5831   58.7853 H       1  ZINC001347442583    0.1100
     27 C27        -9.8353   -1.3861   58.7349 C.3     1  ZINC001347442583   -0.1400
     28 C28        -8.5194   -0.9730   59.4411 C.3     1  ZINC001347442583    0.0500
     29 O29        -7.8970   -0.0311   58.5531 O.3     1  ZINC001347442583   -0.3800
     30 C30        -8.8892    0.5905   57.7219 C.3     1  ZINC001347442583    0.0700
     31 C31       -11.1311   -2.2569   53.9980 C.3     1  ZINC001347442583   -0.1400
     32 H32        -8.2281    1.3290   52.2713 H       1  ZINC001347442583    0.0900
     33 H33        -7.6090    0.7340   53.8305 H       1  ZINC001347442583    0.0900
     34 H34        -5.6485   -0.2516   52.6768 H       1  ZINC001347442583    0.0700
     35 H35        -6.2678    0.3412   51.1169 H       1  ZINC001347442583    0.0700
     36 H36        -6.1699    2.6766   51.9922 H       1  ZINC001347442583    0.0600
     37 H37        -5.4864    2.0592   53.5154 H       1  ZINC001347442583    0.0600
     38 H38        -3.5934    1.0563   52.2046 H       1  ZINC001347442583    0.0700
     39 H39        -4.2539    1.8133   50.7352 H       1  ZINC001347442583    0.0700
     40 H40        -2.8213    3.5559   50.1661 H       1  ZINC001347442583    0.1200
     41 H41        -1.6811    5.6619   50.7385 H       1  ZINC001347442583    0.1200
     42 H42        -1.6913    6.4751   53.0627 H       1  ZINC001347442583    0.1200
     43 H43        -2.8424    5.1827   54.8143 H       1  ZINC001347442583    0.1200
     44 H44        -3.9866    3.0790   54.2409 H       1  ZINC001347442583    0.1200
     45 H45       -11.3455   -1.6340   50.6127 H       1  ZINC001347442583    0.0700
     46 H46       -12.5737   -2.0893   51.8374 H       1  ZINC001347442583    0.0800
     47 H47       -11.4952    0.5778   51.2850 H       1  ZINC001347442583    0.0800
     48 H48       -12.7233    0.1224   52.5097 H       1  ZINC001347442583    0.0800
     49 H49        -9.4905   -0.5357   55.6117 H       1  ZINC001347442583    0.4000
     50 H50       -10.5812   -1.7182   59.4571 H       1  ZINC001347442583    0.0900
     51 H51        -9.6528   -2.1520   57.9811 H       1  ZINC001347442583    0.0900
     52 H52        -8.7364   -0.5025   60.4001 H       1  ZINC001347442583    0.0700
     53 H53        -7.8767   -1.8420   59.5819 H       1  ZINC001347442583    0.0900
     54 H54        -8.6614    0.4048   56.6723 H       1  ZINC001347442583    0.0700
     55 H55        -8.9119    1.6634   57.9125 H       1  ZINC001347442583    0.0800
     56 H56       -12.1151   -2.7210   53.9312 H       1  ZINC001347442583    0.0900
     57 H57       -10.4889   -2.8124   54.6815 H       1  ZINC001347442583    0.0800
@<TRIPOS>BOND
     1     1     2    2
     2     2     3    1
     3     2    13   am
     4     3     4    1
     5     3    32    1
     6     3    33    1
     7     4     5    1
     8     4    34    1
     9     4    35    1
    10     5     6    1
    11     5    36    1
    12     5    37    1
    13     6     7    1
    14     6    38    1
    15     6    39    1
    16     7    12   ar
    17     7     8   ar
    18     8     9   ar
    19     8    40    1
    20     9    10   ar
    21     9    41    1
    22    10    11   ar
    23    10    42    1
    24    11    12   ar
    25    11    43    1
    26    12    44    1
    27    13    18    1
    28    13    14    1
    29    14    15    1
    30    14    31    1
    31    14    16    1
    32    16    17    1
    33    16    45    1
    34    16    46    1
    35    17    18    1
    36    17    47    1
    37    17    48    1
    38    18    19    1
    39    18    20    1
    40    20    21    1
    41    20    22    1
    42    20    31    1
    43    22    23   am
    44    22    49    1
    45    23    24    2
    46    23    25    1
    47    25    26    1
    48    25    30    1
    49    25    27    1
    50    27    28    1
    51    27    50    1
    52    27    51    1
    53    28    29    1
    54    28    52    1
    55    28    53    1
    56    29    30    1
    57    30    54    1
    58    30    55    1
    59    31    56    1
    60    31    57    1
@<TRIPOS>SUBSTRUCTURE
     1 ZINC001347442583        1 TEMP              0 ****  ****    0 ROOT


##########                                Name:    ZINC001282645012
##########                DOCK_Rotatable_Bonds:                   9
##########                         Heavy_Atoms:                  27
##########                    Molecular_Weight:             372.511
##########                DOCK_Rotatable_Bonds:                   9
##########                       Formal_Charge:          -0.0200004
##########                     HBond_Acceptors:                   6
##########                        HBond_Donors:                   1
##########                         Heavy_Atoms:                  27
##########                          Grid_Score:          -30.890501
##########                     Grid_vdw_energy:          -30.114321
##########                      Grid_es_energy:           -0.776180
##########           Internal_energy_repulsive:           33.558693

@<TRIPOS>MOLECULE
ZINC001282645012
 59 61 1 0 0
SMALL
USER_CHARGES


@<TRIPOS>ATOM
      1 C1        -11.8530   -5.0739   57.1099 C.2     1  ZINC001282645012   -0.1900
      2 C2        -12.2761   -3.9162   57.5535 C.2     1  ZINC001282645012   -0.1300
      3 C3        -13.6546   -3.4279   57.1894 C.3     1  ZINC001282645012   -0.0500
      4 C4        -14.7032   -4.2725   57.9160 C.3     1  ZINC001282645012   -0.1500
      5 C5        -13.8028   -1.9627   57.6048 C.3     1  ZINC001282645012   -0.1400
      6 C6        -13.8541   -3.5506   55.7007 C.2     1  ZINC001282645012    0.5500
      7 O7        -14.8468   -4.0940   55.2648 O.2     1  ZINC001282645012   -0.5300
      8 N8        -12.9294   -3.0564   54.8539 N.am    1  ZINC001282645012   -0.6300
      9 C9        -12.8794   -3.0437   53.3523 C.3     1  ZINC001282645012    0.1200
     10 H10       -13.7218   -3.5131   52.8446 H       1  ZINC001282645012    0.1300
     11 C11       -11.4890   -3.6987   53.0942 C.3     1  ZINC001282645012   -0.1300
     12 C12       -10.6388   -3.2253   54.2988 C.3     1  ZINC001282645012   -0.1300
     13 C13       -11.6344   -2.3430   55.1207 C.3     1  ZINC001282645012    0.1200
     14 H14       -11.3791   -2.1991   56.1706 H       1  ZINC001282645012    0.1200
     15 C15       -11.8043   -1.0385   54.2851 C.3     1  ZINC001282645012    0.1300
     16 H16       -12.3379   -0.2813   54.8595 H       1  ZINC001282645012    0.1000
     17 N17       -10.5006   -0.5305   53.8507 N.am    1  ZINC001282645012   -0.7100
     18 C18       -10.4206    0.6385   53.1848 C.2     1  ZINC001282645012    0.5100
     19 O19       -11.4281    1.2692   52.9439 O.2     1  ZINC001282645012   -0.5100
     20 C20        -9.0794    1.1618   52.7395 C.3     1  ZINC001282645012    0.1200
     21 H21        -9.2222    1.9130   51.9627 H       1  ZINC001282645012    0.1300
     22 C22        -8.3564    1.7920   53.9316 C.3     1  ZINC001282645012   -0.1100
     23 C23        -7.5480    3.0010   53.4568 C.3     1  ZINC001282645012   -0.1000
     24 C24        -8.5001    4.1483   53.1135 C.3     1  ZINC001282645012   -0.1500
     25 C25        -6.5942    3.4449   54.5677 C.3     1  ZINC001282645012   -0.1500
     26 N26        -8.2759    0.0576   52.2091 N.pl3   1  ZINC001282645012   -0.4500
     27 C27        -6.9094   -0.0205   52.1981 C.2     1  ZINC001282645012   -0.0600
     28 C28        -6.5909   -1.1960   51.6236 C.2     1  ZINC001282645012   -0.0200
     29 N29        -7.7318   -1.8188   51.2927 N.2     1  ZINC001282645012   -0.4900
     30 C30        -8.7453   -1.0760   51.6450 C.2     1  ZINC001282645012    0.1900
     31 C31       -12.6886   -1.5224   53.0728 C.3     1  ZINC001282645012   -0.1400
     32 H32       -12.4921   -5.6784   56.4833 H       1  ZINC001282645012    0.1000
     33 H33       -10.8635   -5.4218   57.3670 H       1  ZINC001282645012    0.1000
     34 H34       -11.6371   -3.3116   58.1799 H       1  ZINC001282645012    0.1100
     35 H35       -14.5589   -4.1837   58.9927 H       1  ZINC001282645012    0.0700
     36 H36       -15.7002   -3.9192   57.6527 H       1  ZINC001282645012    0.0700
     37 H37       -14.5977   -5.3162   57.6201 H       1  ZINC001282645012    0.0600
     38 H38       -13.0556   -1.3610   57.0872 H       1  ZINC001282645012    0.0600
     39 H39       -14.7998   -1.6096   57.3415 H       1  ZINC001282645012    0.0700
     40 H40       -13.6584   -1.8740   58.6815 H       1  ZINC001282645012    0.0700
     41 H41       -11.5720   -4.7855   53.0863 H       1  ZINC001282645012    0.0800
     42 H42       -11.0626   -3.3382   52.1581 H       1  ZINC001282645012    0.0800
     43 H43       -10.3002   -4.0774   54.8882 H       1  ZINC001282645012    0.0700
     44 H44        -9.7908   -2.6302   53.9601 H       1  ZINC001282645012    0.0800
     45 H45        -9.6949   -1.0356   54.0424 H       1  ZINC001282645012    0.4000
     46 H46        -9.0888    2.1128   54.6724 H       1  ZINC001282645012    0.0900
     47 H47        -7.6850    1.0586   54.3783 H       1  ZINC001282645012    0.0800
     48 H48        -6.9731    2.7288   52.5716 H       1  ZINC001282645012    0.0700
     49 H49        -9.0751    4.4206   53.9986 H       1  ZINC001282645012    0.0600
     50 H50        -7.9242    5.0096   52.7752 H       1  ZINC001282645012    0.0600
     51 H51        -9.1797    3.8320   52.3220 H       1  ZINC001282645012    0.0500
     52 H52        -5.8616    2.6593   54.7531 H       1  ZINC001282645012    0.0600
     53 H53        -6.0803    4.3564   54.2627 H       1  ZINC001282645012    0.0600
     54 H54        -7.1613    3.6351   55.4789 H       1  ZINC001282645012    0.0600
     55 H55        -6.2193    0.7188   52.5772 H       1  ZINC001282645012    0.1700
     56 H56        -5.5919   -1.5716   51.4582 H       1  ZINC001282645012    0.1700
     57 H57        -9.7868   -1.3239   51.5029 H       1  ZINC001282645012    0.2000
     58 H58       -12.1555   -1.3892   52.1314 H       1  ZINC001282645012    0.0900
     59 H59       -13.6399   -0.9907   53.0551 H       1  ZINC001282645012    0.0900
@<TRIPOS>BOND
     1     1     2    2
     2     1    32    1
     3     1    33    1
     4     2     3    1
     5     2    34    1
     6     3     4    1
     7     3     5    1
     8     3     6    1
     9     4    35    1
    10     4    36    1
    11     4    37    1
    12     5    38    1
    13     5    39    1
    14     5    40    1
    15     6     7    2
    16     6     8   am
    17     8    13    1
    18     8     9    1
    19     9    10    1
    20     9    31    1
    21     9    11    1
    22    11    12    1
    23    11    41    1
    24    11    42    1
    25    12    13    1
    26    12    43    1
    27    12    44    1
    28    13    14    1
    29    13    15    1
    30    15    16    1
    31    15    17    1
    32    15    31    1
    33    17    18   am
    34    17    45    1
    35    18    19    2
    36    18    20    1
    37    20    21    1
    38    20    22    1
    39    20    26    1
    40    22    23    1
    41    22    46    1
    42    22    47    1
    43    23    24    1
    44    23    25    1
    45    23    48    1
    46    24    49    1
    47    24    50    1
    48    24    51    1
    49    25    52    1
    50    25    53    1
    51    25    54    1
    52    26    30    1
    53    26    27    1
    54    27    28    2
    55    27    55    1
    56    28    29    1
    57    28    56    1
    58    29    30    2
    59    30    57    1
    60    31    58    1
    61    31    59    1
@<TRIPOS>SUBSTRUCTURE
     1 ZINC001282645012        1 TEMP              0 ****  ****    0 ROOT


##########                                Name:    ZINC000151991096
##########                DOCK_Rotatable_Bonds:                   8
##########                         Heavy_Atoms:                  27
##########                    Molecular_Weight:             364.444
##########                DOCK_Rotatable_Bonds:                   8
##########                       Formal_Charge:          -0.0200004
##########                     HBond_Acceptors:                   5
##########                        HBond_Donors:                   1
##########                         Heavy_Atoms:                  27
##########                          Grid_Score:          -30.865417
##########                     Grid_vdw_energy:          -30.003500
##########                      Grid_es_energy:           -0.861918
##########           Internal_energy_repulsive:           20.212484

@<TRIPOS>MOLECULE
ZINC000151991096
 51 53 1 0 0
SMALL
USER_CHARGES


@<TRIPOS>ATOM
      1 C1         -0.6691    3.7408   50.4505 C.3     1  ZINC000151991096   -0.1500
      2 C2         -2.1565    3.4526   50.6637 C.3     1  ZINC000151991096   -0.1300
      3 C3         -2.3812    2.9641   52.0961 C.3     1  ZINC000151991096    0.1400
      4 H4         -1.7484    2.0975   52.2879 H       1  ZINC000151991096    0.1000
      5 N5         -3.7870    2.5903   52.2697 N.am    1  ZINC000151991096   -0.7200
      6 C6         -4.2300    1.4026   51.8120 C.2     1  ZINC000151991096    0.5600
      7 O7         -3.4633    0.6421   51.2535 O.2     1  ZINC000151991096   -0.5300
      8 C8         -5.6461    1.0254   51.9886 C.ar    1  ZINC000151991096   -0.1700
      9 C9         -6.5637    1.9582   52.4786 C.ar    1  ZINC000151991096   -0.0500
     10 C10        -7.8840    1.6026   52.6415 C.ar    1  ZINC000151991096   -0.1600
     11 C11        -8.3043    0.3174   52.3193 C.ar    1  ZINC000151991096    0.1600
     12 O12        -9.6064   -0.0292   52.4808 O.3     1  ZINC000151991096   -0.3000
     13 C13       -10.0029   -1.3101   51.9866 C.3     1  ZINC000151991096    0.0900
     14 C14       -11.4993   -1.4498   52.0969 C.ar    1  ZINC000151991096   -0.0500
     15 C15       -12.3259   -0.6678   51.3175 C.ar    1  ZINC000151991096   -0.1000
     16 C16       -13.7002   -0.7948   51.4175 C.ar    1  ZINC000151991096   -0.0900
     17 C17       -14.2548   -1.7054   52.2990 C.ar    1  ZINC000151991096   -0.1200
     18 C18       -13.4398   -2.4940   53.0847 C.ar    1  ZINC000151991096   -0.0700
     19 C19       -12.0523   -2.3755   52.9844 C.ar    1  ZINC000151991096   -0.0200
     20 C20       -11.2002   -3.1908   53.7968 C.1     1  ZINC000151991096    0.2400
     21 N21       -10.5243   -3.8375   54.4412 N.1     1  ZINC000151991096   -0.4000
     22 C22        -7.3945   -0.6135   51.8316 C.ar    1  ZINC000151991096   -0.2200
     23 C23        -6.0736   -0.2640   51.6609 C.ar    1  ZINC000151991096   -0.0100
     24 C24        -2.0257    4.0824   53.0779 C.3     1  ZINC000151991096    0.0700
     25 H25        -0.9762    4.3542   52.9644 H       1  ZINC000151991096    0.1000
     26 C26        -2.2916    3.6134   54.5245 C.3     1  ZINC000151991096   -0.1500
     27 C27        -2.8803    4.8911   55.1823 C.3     1  ZINC000151991096   -0.1600
     28 C28        -3.6593    5.5030   53.9910 C.3     1  ZINC000151991096    0.0500
     29 O29        -2.8530    5.2256   52.8326 O.3     1  ZINC000151991096   -0.3700
     30 H30        -0.0948    2.8297   50.6180 H       1  ZINC000151991096    0.0500
     31 H31        -0.5091    4.0888   49.4301 H       1  ZINC000151991096    0.0500
     32 H32        -0.3438    4.5093   51.1517 H       1  ZINC000151991096    0.0600
     33 H33        -2.7308    4.3638   50.4963 H       1  ZINC000151991096    0.0700
     34 H34        -2.4818    2.6840   49.9625 H       1  ZINC000151991096    0.0700
     35 H35        -4.3990    3.1977   52.7143 H       1  ZINC000151991096    0.4000
     36 H36        -6.2379    2.9569   52.7295 H       1  ZINC000151991096    0.1300
     37 H37        -8.5938    2.3229   53.0205 H       1  ZINC000151991096    0.1400
     38 H38        -9.7051   -1.4048   50.9424 H       1  ZINC000151991096    0.0800
     39 H39        -9.5207   -2.0914   52.5743 H       1  ZINC000151991096    0.0800
     40 H40       -11.8995    0.0456   50.6277 H       1  ZINC000151991096    0.1400
     41 H41       -14.3428   -0.1799   50.8048 H       1  ZINC000151991096    0.1400
     42 H42       -15.3283   -1.7988   52.3726 H       1  ZINC000151991096    0.1400
     43 H43       -13.8741   -3.2042   53.7728 H       1  ZINC000151991096    0.1400
     44 H44        -7.7249   -1.6111   51.5827 H       1  ZINC000151991096    0.1300
     45 H45        -5.3674   -0.9877   51.2816 H       1  ZINC000151991096    0.1400
     46 H46        -3.0162    2.7993   54.5414 H       1  ZINC000151991096    0.0800
     47 H47        -1.3632    3.3179   55.0134 H       1  ZINC000151991096    0.0900
     48 H48        -3.5522    4.6370   56.0021 H       1  ZINC000151991096    0.0800
     49 H49        -2.0883    5.5602   55.5190 H       1  ZINC000151991096    0.0800
     50 H50        -4.6365    5.0298   53.8948 H       1  ZINC000151991096    0.0600
     51 H51        -3.7707    6.5791   54.1244 H       1  ZINC000151991096    0.0900
@<TRIPOS>BOND
     1     1     2    1
     2     1    30    1
     3     1    31    1
     4     1    32    1
     5     2     3    1
     6     2    33    1
     7     2    34    1
     8     3     4    1
     9     3     5    1
    10     3    24    1
    11     5     6   am
    12     5    35    1
    13     6     7    2
    14     6     8    1
    15     8    23   ar
    16     8     9   ar
    17     9    10   ar
    18     9    36    1
    19    10    11   ar
    20    10    37    1
    21    11    12    1
    22    11    22   ar
    23    12    13    1
    24    13    14    1
    25    13    38    1
    26    13    39    1
    27    14    19   ar
    28    14    15   ar
    29    15    16   ar
    30    15    40    1
    31    16    17   ar
    32    16    41    1
    33    17    18   ar
    34    17    42    1
    35    18    19   ar
    36    18    43    1
    37    19    20    1
    38    20    21    3
    39    22    23   ar
    40    22    44    1
    41    23    45    1
    42    24    25    1
    43    24    29    1
    44    24    26    1
    45    26    27    1
    46    26    46    1
    47    26    47    1
    48    27    28    1
    49    27    48    1
    50    27    49    1
    51    28    29    1
    52    28    50    1
    53    28    51    1
@<TRIPOS>SUBSTRUCTURE
     1 ZINC000151991096        1 TEMP              0 ****  ****    0 ROOT


##########                                Name:    ZINC001078110631
##########                DOCK_Rotatable_Bonds:                   7
##########                         Heavy_Atoms:                  25
##########                    Molecular_Weight:             353.369
##########                DOCK_Rotatable_Bonds:                   7
##########                       Formal_Charge:           0.0100006
##########                     HBond_Acceptors:                   8
##########                        HBond_Donors:                   2
##########                         Heavy_Atoms:                  25
##########                          Grid_Score:          -30.859447
##########                     Grid_vdw_energy:          -29.987026
##########                      Grid_es_energy:           -0.872421
##########           Internal_energy_repulsive:            7.427087

@<TRIPOS>MOLECULE
ZINC001078110631
 46 48 1 0 0
SMALL
USER_CHARGES


@<TRIPOS>ATOM
      1 O1        -12.6731   -4.1980   57.3488 O.2     1  ZINC001078110631   -0.5100
      2 C2        -13.5689   -3.3840   57.4654 C.2     1  ZINC001078110631    0.5600
      3 N3        -14.0898   -2.7939   56.3714 N.am    1  ZINC001078110631   -0.7200
      4 C4        -13.5727   -3.1286   55.0422 C.3     1  ZINC001078110631    0.1500
      5 H5        -13.7587   -4.1789   54.8178 H       1  ZINC001078110631    0.1200
      6 C6        -12.0616   -2.8227   54.9622 C.3     1  ZINC001078110631    0.0300
      7 N7        -11.8572   -2.3042   53.5850 N.3     1  ZINC001078110631   -0.5000
      8 C8        -10.6192   -1.5182   53.4969 C.3     1  ZINC001078110631    0.0300
      9 C9        -10.0126   -1.6770   52.1012 C.3     1  ZINC001078110631    0.1300
     10 N10        -8.7783   -0.8927   52.0132 N.am    1  ZINC001078110631   -0.6200
     11 C11        -7.4448   -1.4683   51.8025 C.3     1  ZINC001078110631    0.1000
     12 C12        -6.5546   -0.2903   51.3484 C.3     1  ZINC001078110631   -0.1300
     13 C13        -7.2923    0.9194   51.9675 C.3     1  ZINC001078110631   -0.1600
     14 C14        -8.7224    0.4469   52.1092 C.2     1  ZINC001078110631    0.5200
     15 O15        -9.6785    1.1707   52.2906 O.2     1  ZINC001078110631   -0.5200
     16 C16       -13.0479   -1.4516   53.3355 C.3     1  ZINC001078110631    0.0000
     17 C17       -14.2235   -2.2285   53.9718 C.3     1  ZINC001078110631    0.1000
     18 H18       -14.9272   -1.5372   54.4357 H       1  ZINC001078110631    0.0700
     19 O19       -14.8860   -3.0220   52.9851 O.3     1  ZINC001078110631   -0.5500
     20 C20       -14.0897   -3.0468   58.8044 C.ar    1  ZINC001078110631   -0.1900
     21 C21       -15.3921   -3.4046   59.1609 C.ar    1  ZINC001078110631   -0.0300
     22 C22       -15.8735   -3.0874   60.4123 C.ar    1  ZINC001078110631   -0.1700
     23 C23       -15.0685   -2.4136   61.3192 C.ar    1  ZINC001078110631    0.1600
     24 F24       -15.5474   -2.1058   62.5443 F       1  ZINC001078110631   -0.1200
     25 C25       -13.7756   -2.0553   60.9740 C.ar    1  ZINC001078110631   -0.2000
     26 C26       -13.2791   -2.3722   59.7242 C.ar    1  ZINC001078110631    0.2000
     27 F27       -12.0183   -2.0228   59.3876 F       1  ZINC001078110631   -0.1000
     28 H28       -14.8072   -2.1476   56.4642 H       1  ZINC001078110631    0.4000
     29 H29       -11.7874   -2.0664   55.6977 H       1  ZINC001078110631    0.0500
     30 H30       -11.4810   -3.7322   55.1160 H       1  ZINC001078110631    0.1000
     31 H31       -10.8426   -0.4669   53.6785 H       1  ZINC001078110631    0.0400
     32 H32        -9.9095   -1.8732   54.2440 H       1  ZINC001078110631    0.0800
     33 H33        -9.7889   -2.7282   51.9197 H       1  ZINC001078110631    0.0900
     34 H34       -10.7225   -1.3224   51.3540 H       1  ZINC001078110631    0.0800
     35 H35        -7.0653   -1.8912   52.7326 H       1  ZINC001078110631    0.0700
     36 H36        -7.4824   -2.2335   51.0271 H       1  ZINC001078110631    0.0800
     37 H37        -5.5476   -0.3830   51.7551 H       1  ZINC001078110631    0.0900
     38 H38        -6.5293   -0.2171   50.2611 H       1  ZINC001078110631    0.0800
     39 H39        -6.8698    1.1663   52.9414 H       1  ZINC001078110631    0.1100
     40 H40        -7.2422    1.7794   51.2997 H       1  ZINC001078110631    0.1000
     41 H41       -12.9280   -0.4809   53.8165 H       1  ZINC001078110631    0.0600
     42 H42       -13.2099   -1.3289   52.2646 H       1  ZINC001078110631    0.0900
     43 H43       -15.6961   -3.4457   53.3001 H       1  ZINC001078110631    0.3800
     44 H44       -16.0208   -3.9290   58.4566 H       1  ZINC001078110631    0.1500
     45 H45       -16.8804   -3.3638   60.6878 H       1  ZINC001078110631    0.1500
     46 H46       -13.1535   -1.5307   61.6842 H       1  ZINC001078110631    0.1600
@<TRIPOS>BOND
     1     1     2    2
     2     2     3   am
     3     2    20    1
     4     3     4    1
     5     3    28    1
     6     4     5    1
     7     4    17    1
     8     4     6    1
     9     6     7    1
    10     6    29    1
    11     6    30    1
    12     7     8    1
    13     7    16    1
    14     8     9    1
    15     8    31    1
    16     8    32    1
    17     9    10    1
    18     9    33    1
    19     9    34    1
    20    10    14   am
    21    10    11    1
    22    11    12    1
    23    11    35    1
    24    11    36    1
    25    12    13    1
    26    12    37    1
    27    12    38    1
    28    13    14    1
    29    13    39    1
    30    13    40    1
    31    14    15    2
    32    16    17    1
    33    16    41    1
    34    16    42    1
    35    17    18    1
    36    17    19    1
    37    19    43    1
    38    20    26   ar
    39    20    21   ar
    40    21    22   ar
    41    21    44    1
    42    22    23   ar
    43    22    45    1
    44    23    24    1
    45    23    25   ar
    46    25    26   ar
    47    25    46    1
    48    26    27    1
@<TRIPOS>SUBSTRUCTURE
     1 ZINC001078110631        1 TEMP              0 ****  ****    0 ROOT


##########                                Name:    ZINC000012087388
##########                DOCK_Rotatable_Bonds:                   5
##########                         Heavy_Atoms:                  29
##########                    Molecular_Weight:              418.52
##########                DOCK_Rotatable_Bonds:                   5
##########                       Formal_Charge:          -0.0499999
##########                     HBond_Acceptors:                  10
##########                        HBond_Donors:                   1
##########                         Heavy_Atoms:                  29
##########                          Grid_Score:          -30.804583
##########                     Grid_vdw_energy:          -31.116713
##########                      Grid_es_energy:            0.312130
##########           Internal_energy_repulsive:           28.743502

@<TRIPOS>MOLECULE
ZINC000012087388
 55 58 1 0 0
SMALL
USER_CHARGES


@<TRIPOS>ATOM
      1 C1         -2.4300    5.7300   56.2688 C.3     1  <0>        -0.6600
      2 S2         -1.8588    4.8079   54.8149 S.o2    1  <0>         2.5100
      3 O3         -1.4529    5.7002   53.7863 O.2     1  <0>        -0.9400
      4 O4         -1.0349    3.7187   55.2073 O.2     1  <0>        -0.9300
      5 C5         -3.3140    4.0447   54.1788 C.ar    1  <0>        -0.8400
      6 C6         -4.4900    4.0415   54.9120 C.ar    1  <0>         0.3000
      7 N7         -5.5648    3.4601   54.4053 N.ar    1  <0>        -0.5800
      8 C8         -5.5252    2.8858   53.2121 C.ar    1  <0>         0.6000
      9 N9         -6.6684    2.2867   52.7123 N.pl3   1  <0>        -0.5700
     10 C10        -6.6363    1.5617   51.4348 C.3     1  <0>         0.1200
     11 C11        -7.1939    0.1518   51.6538 C.3     1  <0>        -0.1400
     12 C12        -8.5841    0.2498   52.2861 C.3     1  <0>        -0.1200
     13 C13        -8.4801    0.9448   53.6456 C.3     1  <0>        -0.1400
     14 C14        -7.9358    2.3586   53.4521 C.3     1  <0>         0.1200
     15 N15        -4.4172    2.8717   52.4855 N.ar    1  <0>        -0.5700
     16 C16        -3.3089    3.4393   52.9317 C.ar    1  <0>         0.3200
     17 C17        -2.0531    3.4189   52.0990 C.3     1  <0>        -0.0700
     18 C18        -1.9244    2.0616   51.4037 C.3     1  <0>        -0.1300
     19 C19        -0.6294    2.0321   50.5859 C.3     1  <0>         0.0900
     20 N20        -0.6213    3.1818   49.6712 N.am    1  <0>        -0.6100
     21 C21        -0.4285    3.0061   48.3490 C.2     1  <0>         0.5900
     22 O22        -0.4242    3.9660   47.6021 O.2     1  <0>        -0.5100
     23 C23        -0.2235    1.6526   47.8087 C.2     1  <0>        -0.0400
     24 C24        -1.0218    0.9958   46.8885 C.2     1  <0>        -0.1500
     25 C25        -0.4177   -0.2489   46.6964 C.2     1  <0>         0.0000
     26 N26         0.6489   -0.2983   47.4530 N.2     1  <0>        -0.2700
     27 N27         0.7960    0.7951   48.1107 N.pl3   1  <0>        -0.3900
     28 C28        -0.8277    4.5269   50.2254 C.3     1  <0>         0.1100
     29 C29        -2.1205    4.5284   51.0471 C.3     1  <0>        -0.1200
     30 H30        -3.1746    6.4651   55.9634 H       1  <0>         0.1400
     31 H31        -2.8738    5.0394   56.9858 H       1  <0>         0.1300
     32 H32        -1.5845    6.2398   56.7309 H       1  <0>         0.1400
     33 H33        -4.5284    4.5077   55.8854 H       1  <0>         0.1900
     34 H34        -7.2481    2.0867   50.7012 H       1  <0>         0.0700
     35 H35        -5.6087    1.4969   51.0772 H       1  <0>         0.1000
     36 H36        -7.2652   -0.3641   50.6963 H       1  <0>         0.0800
     37 H37        -6.5305   -0.4027   52.3177 H       1  <0>         0.0700
     38 H38        -9.2402    0.8255   51.6332 H       1  <0>         0.0700
     39 H39        -8.9934   -0.7515   52.4204 H       1  <0>         0.0700
     40 H40        -9.4670    0.9934   54.1058 H       1  <0>         0.0800
     41 H41        -7.8047    0.3829   54.2907 H       1  <0>         0.0700
     42 H42        -7.7671    2.8214   54.4245 H       1  <0>         0.1000
     43 H43        -8.6517    2.9509   52.8823 H       1  <0>         0.0700
     44 H44        -1.1881    3.5804   52.7423 H       1  <0>         0.1000
     45 H45        -1.8999    1.2700   52.1526 H       1  <0>         0.0800
     46 H46        -2.7766    1.9101   50.7411 H       1  <0>         0.0900
     47 H47         0.2277    2.0926   51.2566 H       1  <0>         0.0800
     48 H48        -0.5813    1.1073   50.0109 H       1  <0>         0.0900
     49 H49        -1.9207    1.3668   46.4188 H       1  <0>         0.1700
     50 H50        -0.7688   -1.0316   46.0403 H       1  <0>         0.1900
     51 H51         1.5171    0.9809   48.7322 H       1  <0>         0.4400
     52 H52         0.0132    4.7909   50.8666 H       1  <0>         0.0800
     53 H53        -0.9106    5.2482   49.4124 H       1  <0>         0.1000
     54 H54        -2.9708    4.3537   50.3880 H       1  <0>         0.0800
     55 H55        -2.2357    5.4927   51.5424 H       1  <0>         0.0900
@<TRIPOS>BOND
     1     1     2    1
     2     1    30    1
     3     1    31    1
     4     1    32    1
     5     2     3    2
     6     2     4    2
     7     2     5    1
     8     5    16   ar
     9     5     6   ar
    10     6     7   ar
    11     6    33    1
    12     7     8   ar
    13     8     9    1
    14     8    15   ar
    15     9    14    1
    16     9    10    1
    17    10    11    1
    18    10    34    1
    19    10    35    1
    20    11    12    1
    21    11    36    1
    22    11    37    1
    23    12    13    1
    24    12    38    1
    25    12    39    1
    26    13    14    1
    27    13    40    1
    28    13    41    1
    29    14    42    1
    30    14    43    1
    31    15    16   ar
    32    16    17    1
    33    17    29    1
    34    17    18    1
    35    17    44    1
    36    18    19    1
    37    18    45    1
    38    18    46    1
    39    19    20    1
    40    19    47    1
    41    19    48    1
    42    20    21   am
    43    20    28    1
    44    21    22    2
    45    21    23    1
    46    23    27    1
    47    23    24    2
    48    24    25    1
    49    24    49    1
    50    25    26    2
    51    25    50    1
    52    26    27    1
    53    27    51    1
    54    28    29    1
    55    28    52    1
    56    28    53    1
    57    29    54    1
    58    29    55    1
@<TRIPOS>SUBSTRUCTURE
     1 <0>         1 TEMP              0 ****  ****    0 ROOT


##########                                Name:    ZINC000518234532
##########                DOCK_Rotatable_Bonds:                   5
##########                         Heavy_Atoms:                  25
##########                    Molecular_Weight:             408.267
##########                DOCK_Rotatable_Bonds:                   5
##########                       Formal_Charge:         -0.00999981
##########                     HBond_Acceptors:                   5
##########                        HBond_Donors:                   1
##########                         Heavy_Atoms:                  25
##########                          Grid_Score:          -30.788019
##########                     Grid_vdw_energy:          -30.426811
##########                      Grid_es_energy:           -0.361208
##########           Internal_energy_repulsive:           18.325274

@<TRIPOS>MOLECULE
ZINC000518234532
 44 46 1 0 0
SMALL
USER_CHARGES


@<TRIPOS>ATOM
      1 C1        -13.2384   -2.4491   52.0156 C.3     1  ZINC000518234532   -0.1600
      2 C2        -12.6597   -1.8165   53.2829 C.3     1  ZINC000518234532    0.1800
      3 H3        -13.3909   -1.1328   53.7142 H       1  ZINC000518234532    0.1100
      4 N4        -12.3426   -2.8678   54.2526 N.am    1  ZINC000518234532   -0.7300
      5 C5        -13.3147   -3.3799   55.0332 C.2     1  ZINC000518234532    0.5200
      6 O6        -14.4521   -2.9713   54.9318 O.2     1  ZINC000518234532   -0.5200
      7 C7        -12.9883   -4.4601   56.0320 C.3     1  ZINC000518234532   -0.0700
      8 H8        -12.3743   -5.2235   55.5540 H       1  ZINC000518234532    0.1100
      9 C9        -14.2848   -5.0932   56.5406 C.3     1  ZINC000518234532   -0.1400
     10 C10       -12.2334   -3.8614   57.1907 C.ar    1  ZINC000518234532   -0.1000
     11 C11       -11.0849   -4.4721   57.6570 C.ar    1  ZINC000518234532   -0.0600
     12 C12       -10.3921   -3.9229   58.7201 C.ar    1  ZINC000518234532   -0.1300
     13 C13       -10.8476   -2.7629   59.3181 C.ar    1  ZINC000518234532   -0.0900
     14 C14       -11.9965   -2.1506   58.8537 C.ar    1  ZINC000518234532   -0.1600
     15 C15       -12.6873   -2.6959   57.7851 C.ar    1  ZINC000518234532    0.1000
     16 F16       -13.8103   -2.0982   57.3303 F       1  ZINC000518234532   -0.1400
     17 C17       -11.4048   -1.0570   52.9372 C.ar    1  ZINC000518234532   -0.0600
     18 C18       -10.2335   -1.7423   52.6763 C.ar    1  ZINC000518234532   -0.1100
     19 C19        -9.0771   -1.0462   52.3570 C.ar    1  ZINC000518234532    0.0800
     20 C20        -9.0998    0.3421   52.2979 C.ar    1  ZINC000518234532    0.0600
     21 C21       -10.2780    1.0246   52.5618 C.ar    1  ZINC000518234532   -0.0800
     22 C22       -11.4285    0.3247   52.8758 C.ar    1  ZINC000518234532   -0.0800
     23 Br23      -13.0335    1.2582   53.2340 Br      1  ZINC000518234532   -0.0300
     24 O24        -7.9783    1.0441   51.9789 O.3     1  ZINC000518234532   -0.3000
     25 C25        -6.7314    0.3487   52.0862 C.3     1  ZINC000518234532    0.0200
     26 C26        -6.8897   -1.0269   51.4246 C.3     1  ZINC000518234532    0.0200
     27 O27        -7.9301   -1.7353   52.1067 O.3     1  ZINC000518234532   -0.3000
     28 H28       -14.1460   -2.9984   52.2657 H       1  ZINC000518234532    0.0700
     29 H29       -13.4742   -1.6668   51.2942 H       1  ZINC000518234532    0.0700
     30 H30       -12.5072   -3.1327   51.5843 H       1  ZINC000518234532    0.0600
     31 H31       -11.4332   -3.1955   54.3328 H       1  ZINC000518234532    0.4000
     32 H32       -14.8309   -5.5264   55.7026 H       1  ZINC000518234532    0.0700
     33 H33       -14.0487   -5.8745   57.2631 H       1  ZINC000518234532    0.0700
     34 H34       -14.8988   -4.3299   57.0187 H       1  ZINC000518234532    0.0700
     35 H35       -10.7284   -5.3788   57.1911 H       1  ZINC000518234532    0.1300
     36 H36        -9.4946   -4.4009   59.0839 H       1  ZINC000518234532    0.1300
     37 H37       -10.3059   -2.3351   60.1487 H       1  ZINC000518234532    0.1300
     38 H38       -12.3526   -1.2446   59.3215 H       1  ZINC000518234532    0.1400
     39 H39       -10.2183   -2.8213   52.7214 H       1  ZINC000518234532    0.1400
     40 H40       -10.2978    2.1036   52.5187 H       1  ZINC000518234532    0.1500
     41 H41        -5.9504    0.9138   51.5773 H       1  ZINC000518234532    0.1300
     42 H42        -6.4697    0.2234   53.1369 H       1  ZINC000518234532    0.0800
     43 H43        -7.1573   -0.9016   50.3754 H       1  ZINC000518234532    0.0800
     44 H44        -5.9549   -1.5819   51.5023 H       1  ZINC000518234532    0.1300
@<TRIPOS>BOND
     1     1     2    1
     2     1    28    1
     3     1    29    1
     4     1    30    1
     5     2     3    1
     6     2     4    1
     7     2    17    1
     8     4     5   am
     9     4    31    1
    10     5     6    2
    11     5     7    1
    12     7     8    1
    13     7     9    1
    14     7    10    1
    15     9    32    1
    16     9    33    1
    17     9    34    1
    18    10    15   ar
    19    10    11   ar
    20    11    12   ar
    21    11    35    1
    22    12    13   ar
    23    12    36    1
    24    13    14   ar
    25    13    37    1
    26    14    15   ar
    27    14    38    1
    28    15    16    1
    29    17    22   ar
    30    17    18   ar
    31    18    19   ar
    32    18    39    1
    33    19    27    1
    34    19    20   ar
    35    20    21   ar
    36    20    24    1
    37    21    22   ar
    38    21    40    1
    39    22    23    1
    40    24    25    1
    41    25    26    1
    42    25    41    1
    43    25    42    1
    44    26    27    1
    45    26    43    1
    46    26    44    1
@<TRIPOS>SUBSTRUCTURE
     1 ZINC000518234532        1 TEMP              0 ****  ****    0 ROOT


##########                                Name:    ZINC000301324012
##########                DOCK_Rotatable_Bonds:                   7
##########                         Heavy_Atoms:                  28
##########                    Molecular_Weight:               415.9
##########                DOCK_Rotatable_Bonds:                   7
##########                       Formal_Charge:          -0.0100002
##########                     HBond_Acceptors:                   8
##########                        HBond_Donors:                   2
##########                         Heavy_Atoms:                  28
##########                          Grid_Score:          -30.781204
##########                     Grid_vdw_energy:          -29.804115
##########                      Grid_es_energy:           -0.977089
##########           Internal_energy_repulsive:           11.304443

@<TRIPOS>MOLECULE
ZINC000301324012
 46 48 1 0 0
SMALL
USER_CHARGES


@<TRIPOS>ATOM
      1 C1        -15.7275   -1.8990   52.9642 C.3     1  ZINC000301324012   -0.1600
      2 C2        -14.4355   -2.6912   53.1741 C.3     1  ZINC000301324012    0.2000
      3 H3        -14.3785   -3.4945   52.4395 H       1  ZINC000301324012    0.1100
      4 N4        -13.2843   -1.7995   53.0130 N.am    1  ZINC000301324012   -0.7100
      5 C5        -12.0670   -2.3123   52.7454 C.2     1  ZINC000301324012    0.5500
      6 O6        -11.9244   -3.5145   52.6362 O.2     1  ZINC000301324012   -0.5300
      7 C7        -10.9049   -1.4124   52.5846 C.ar    1  ZINC000301324012   -0.0700
      8 C8        -11.0920   -0.0309   52.5188 C.ar    1  ZINC000301324012   -0.1100
      9 C9        -10.0034    0.8032   52.3692 C.ar    1  ZINC000301324012   -0.0200
     10 C10        -8.7283    0.2729   52.2840 C.ar    1  ZINC000301324012   -0.6600
     11 S11        -7.3434    1.3453   52.0925 S.o2    1  ZINC000301324012    2.6900
     12 O12        -6.3405    0.5904   51.4263 O.2     1  ZINC000301324012   -0.9400
     13 O13        -7.8532    2.5734   51.5914 O.2     1  ZINC000301324012   -0.9400
     14 N14        -6.7581    1.6657   53.6081 N.am    1  ZINC000301324012   -1.0500
     15 C15        -7.5772    2.2831   54.5573 C.ar    1  ZINC000301324012    0.1600
     16 C16        -8.5261    1.5398   55.2464 C.ar    1  ZINC000301324012   -0.1600
     17 C17        -9.3343    2.1532   56.1843 C.ar    1  ZINC000301324012   -0.0800
     18 C18        -9.1996    3.5057   56.4371 C.ar    1  ZINC000301324012   -0.1200
     19 C19        -8.2555    4.2498   55.7529 C.ar    1  ZINC000301324012   -0.0900
     20 C20        -7.4397    3.6418   54.8180 C.ar    1  ZINC000301324012   -0.0600
     21 Cl21       -6.2549    4.5761   53.9596 Cl      1  ZINC000301324012   -0.0600
     22 C22        -8.5359   -1.0957   52.3490 C.ar    1  ZINC000301324012   -0.0200
     23 C23        -9.6155   -1.9405   52.5038 C.ar    1  ZINC000301324012   -0.0800
     24 C24       -14.4261   -3.2781   54.5620 C.ar    1  ZINC000301324012    0.1200
     25 C25       -14.6508   -2.4585   55.6516 C.ar    1  ZINC000301324012   -0.1600
     26 C26       -14.6404   -3.0086   56.9245 C.ar    1  ZINC000301324012   -0.0700
     27 C27       -14.4035   -4.3684   57.0537 C.ar    1  ZINC000301324012   -0.1700
     28 C28       -14.1870   -5.1253   55.9176 C.ar    1  ZINC000301324012    0.1100
     29 N29       -14.2089   -4.5691   54.7222 N.ar    1  ZINC000301324012   -0.4900
     30 H30       -16.5840   -2.5623   53.0839 H       1  ZINC000301324012    0.0700
     31 H31       -15.7845   -1.0956   53.6986 H       1  ZINC000301324012    0.0600
     32 H32       -15.7343   -1.4744   51.9602 H       1  ZINC000301324012    0.0700
     33 H33       -13.3982   -0.8401   53.0990 H       1  ZINC000301324012    0.4100
     34 H34       -12.0870    0.3842   52.5845 H       1  ZINC000301324012    0.1400
     35 H35       -10.1468    1.8725   52.3182 H       1  ZINC000301324012    0.1500
     36 H36        -5.8468    1.4249   53.8370 H       1  ZINC000301324012    0.4300
     37 H37        -8.6326    0.4834   55.0493 H       1  ZINC000301324012    0.1700
     38 H38       -10.0725    1.5753   56.7204 H       1  ZINC000301324012    0.1400
     39 H39        -9.8333    3.9824   57.1702 H       1  ZINC000301324012    0.1400
     40 H40        -8.1529    5.3061   55.9528 H       1  ZINC000301324012    0.1400
     41 H41        -7.5379   -1.5033   52.2823 H       1  ZINC000301324012    0.1500
     42 H42        -9.4638   -3.0087   52.5548 H       1  ZINC000301324012    0.1500
     43 H43       -14.8316   -1.4027   55.5137 H       1  ZINC000301324012    0.1400
     44 H44       -14.8125   -2.3923   57.7945 H       1  ZINC000301324012    0.1400
     45 H45       -14.3879   -4.8305   58.0298 H       1  ZINC000301324012    0.1400
     46 H46       -14.0013   -6.1852   56.0097 H       1  ZINC000301324012    0.1600
@<TRIPOS>BOND
     1     1     2    1
     2     1    30    1
     3     1    31    1
     4     1    32    1
     5     2     3    1
     6     2     4    1
     7     2    24    1
     8     4     5   am
     9     4    33    1
    10     5     6    2
    11     5     7    1
    12     7    23   ar
    13     7     8   ar
    14     8     9   ar
    15     8    34    1
    16     9    10   ar
    17     9    35    1
    18    10    11    1
    19    10    22   ar
    20    11    12    2
    21    11    13    2
    22    11    14   am
    23    14    15    1
    24    14    36    1
    25    15    20   ar
    26    15    16   ar
    27    16    17   ar
    28    16    37    1
    29    17    18   ar
    30    17    38    1
    31    18    19   ar
    32    18    39    1
    33    19    20   ar
    34    19    40    1
    35    20    21    1
    36    22    23   ar
    37    22    41    1
    38    23    42    1
    39    24    29   ar
    40    24    25   ar
    41    25    26   ar
    42    25    43    1
    43    26    27   ar
    44    26    44    1
    45    27    28   ar
    46    27    45    1
    47    28    29   ar
    48    28    46    1
@<TRIPOS>SUBSTRUCTURE
     1 ZINC000301324012        1 TEMP              0 ****  ****    0 ROOT


##########                                Name:    ZINC000077537368
##########                DOCK_Rotatable_Bonds:                   5
##########                         Heavy_Atoms:                  27
##########                    Molecular_Weight:             365.478
##########                DOCK_Rotatable_Bonds:                   5
##########                       Formal_Charge:          -0.0400007
##########                     HBond_Acceptors:                   6
##########                        HBond_Donors:                   0
##########                         Heavy_Atoms:                  27
##########                          Grid_Score:          -30.746775
##########                     Grid_vdw_energy:          -31.325556
##########                      Grid_es_energy:            0.578781
##########           Internal_energy_repulsive:           14.625524

@<TRIPOS>MOLECULE
ZINC000077537368
 54 56 1 0 0
SMALL
USER_CHARGES


@<TRIPOS>ATOM
      1 C1        -11.0019   -3.7995   58.2214 C.3     1  ZINC000077537368    0.0800
      2 N2        -12.3760   -3.2967   58.1501 N.pl3   1  ZINC000077537368   -0.2600
      3 N3        -13.0210   -2.7647   59.1253 N.2     1  ZINC000077537368   -0.2700
      4 C4        -14.2257   -2.4147   58.7531 C.2     1  ZINC000077537368    0.0400
      5 C5        -15.2685   -1.7615   59.6231 C.3     1  ZINC000077537368    0.0200
      6 C6        -14.5806   -0.9030   60.6865 C.3     1  ZINC000077537368   -0.1400
      7 C7        -16.1718   -0.8779   58.7604 C.3     1  ZINC000077537368   -0.1400
      8 C8        -16.1119   -2.8403   60.3057 C.3     1  ZINC000077537368   -0.1400
      9 C9        -14.3734   -2.7535   57.4061 C.2     1  ZINC000077537368   -0.2000
     10 C10       -13.1647   -3.3166   57.0350 C.2     1  ZINC000077537368   -0.0400
     11 C11       -12.8046   -3.8401   55.7077 C.2     1  ZINC000077537368    0.5900
     12 O12       -13.3788   -4.8154   55.2624 O.2     1  ZINC000077537368   -0.5400
     13 N13       -11.8384   -3.2387   54.9856 N.am    1  ZINC000077537368   -0.6000
     14 C14       -11.4671   -3.7419   53.6544 C.3     1  ZINC000077537368    0.0800
     15 C15       -11.4954   -2.5711   52.6662 C.3     1  ZINC000077537368    0.0400
     16 N16       -10.6508   -1.4829   53.1767 N.3     1  ZINC000077537368   -0.5300
     17 C17       -10.5130   -0.4120   52.1808 C.3     1  ZINC000077537368    0.0900
     18 C18        -9.0988    0.1086   52.1954 C.ar    1  ZINC000077537368   -0.0500
     19 C19        -8.0442   -0.7679   52.3804 C.ar    1  ZINC000077537368   -0.1200
     20 C20        -6.7473   -0.2980   52.3952 C.ar    1  ZINC000077537368   -0.0700
     21 C21        -6.5001    1.0654   52.2226 C.ar    1  ZINC000077537368   -0.0300
     22 C22        -5.1563    1.5600   52.2364 C.1     1  ZINC000077537368    0.2500
     23 N23        -4.0903    1.9525   52.2474 N.1     1  ZINC000077537368   -0.4100
     24 C24        -7.5690    1.9441   52.0360 C.ar    1  ZINC000077537368   -0.0700
     25 C25        -8.8607    1.4600   52.0180 C.ar    1  ZINC000077537368   -0.1000
     26 C26       -11.1691   -0.9573   54.4468 C.3     1  ZINC000077537368    0.0400
     27 C27       -11.1316   -2.0583   55.5054 C.3     1  ZINC000077537368    0.1200
     28 H28       -10.3142   -3.0280   57.8750 H       1  ZINC000077537368    0.0800
     29 H29       -10.7640   -4.0620   59.2522 H       1  ZINC000077537368    0.1000
     30 H30       -10.9049   -4.6827   57.5900 H       1  ZINC000077537368    0.1100
     31 H31       -13.9798   -0.1346   60.2001 H       1  ZINC000077537368    0.0600
     32 H32       -15.3349   -0.4306   61.3157 H       1  ZINC000077537368    0.0600
     33 H33       -13.9372   -1.5326   61.3011 H       1  ZINC000077537368    0.0600
     34 H34       -16.6619   -1.4895   58.0028 H       1  ZINC000077537368    0.0600
     35 H35       -16.9261   -0.4054   59.3896 H       1  ZINC000077537368    0.0600
     36 H36       -15.5710   -0.1095   58.2740 H       1  ZINC000077537368    0.0600
     37 H37       -15.4684   -3.4697   60.9203 H       1  ZINC000077537368    0.0600
     38 H38       -16.8661   -2.3677   60.9349 H       1  ZINC000077537368    0.0600
     39 H39       -16.6021   -3.4518   59.5481 H       1  ZINC000077537368    0.0600
     40 H40       -15.2443   -2.6044   56.7851 H       1  ZINC000077537368    0.1700
     41 H41       -10.4639   -4.1666   53.6902 H       1  ZINC000077537368    0.0800
     42 H42       -12.1795   -4.5043   53.3393 H       1  ZINC000077537368    0.1200
     43 H43       -11.1169   -2.9021   51.6991 H       1  ZINC000077537368    0.0900
     44 H44       -12.5194   -2.2146   52.5538 H       1  ZINC000077537368    0.0400
     45 H45       -10.7454   -0.8043   51.1908 H       1  ZINC000077537368    0.0900
     46 H46       -11.2010    0.3985   52.4212 H       1  ZINC000077537368    0.0500
     47 H47        -8.2369   -1.8221   52.5138 H       1  ZINC000077537368    0.1300
     48 H48        -5.9251   -0.9831   52.5404 H       1  ZINC000077537368    0.1300
     49 H49        -7.3848    2.9997   51.9018 H       1  ZINC000077537368    0.1300
     50 H50        -9.6884    2.1384   51.8735 H       1  ZINC000077537368    0.1400
     51 H51       -10.5539   -0.1180   54.7711 H       1  ZINC000077537368    0.1000
     52 H52       -12.1975   -0.6233   54.3096 H       1  ZINC000077537368    0.0400
     53 H53       -11.6197   -1.7084   56.4150 H       1  ZINC000077537368    0.1000
     54 H54       -10.0967   -2.3240   55.7209 H       1  ZINC000077537368    0.0800
@<TRIPOS>BOND
     1     1     2    1
     2     1    28    1
     3     1    29    1
     4     1    30    1
     5     2    10    1
     6     2     3    1
     7     3     4    2
     8     4     5    1
     9     4     9    1
    10     5     6    1
    11     5     7    1
    12     5     8    1
    13     6    31    1
    14     6    32    1
    15     6    33    1
    16     7    34    1
    17     7    35    1
    18     7    36    1
    19     8    37    1
    20     8    38    1
    21     8    39    1
    22     9    10    2
    23     9    40    1
    24    10    11    1
    25    11    12    2
    26    11    13   am
    27    13    27    1
    28    13    14    1
    29    14    15    1
    30    14    41    1
    31    14    42    1
    32    15    16    1
    33    15    43    1
    34    15    44    1
    35    16    17    1
    36    16    26    1
    37    17    18    1
    38    17    45    1
    39    17    46    1
    40    18    25   ar
    41    18    19   ar
    42    19    20   ar
    43    19    47    1
    44    20    21   ar
    45    20    48    1
    46    21    22    1
    47    21    24   ar
    48    22    23    3
    49    24    25   ar
    50    24    49    1
    51    25    50    1
    52    26    27    1
    53    26    51    1
    54    26    52    1
    55    27    53    1
    56    27    54    1
@<TRIPOS>SUBSTRUCTURE
     1 ZINC000077537368        1 TEMP              0 ****  ****    0 ROOT


##########                                Name:    ZINC000011157684
##########                DOCK_Rotatable_Bonds:                   7
##########                         Heavy_Atoms:                  25
##########                    Molecular_Weight:             374.866
##########                DOCK_Rotatable_Bonds:                   7
##########                       Formal_Charge:           0.0400001
##########                     HBond_Acceptors:                   6
##########                        HBond_Donors:                   2
##########                         Heavy_Atoms:                  25
##########                          Grid_Score:          -30.709106
##########                     Grid_vdw_energy:          -30.107519
##########                      Grid_es_energy:           -0.601587
##########           Internal_energy_repulsive:            7.643515

@<TRIPOS>MOLECULE
ZINC000011157684
 41 43 1 0 0
SMALL
USER_CHARGES


@<TRIPOS>ATOM
      1 O1         -4.3254    0.4514   51.5252 O.2     1  ZINC000011157684   -0.5200
      2 C2         -4.8005    1.5413   51.7648 C.2     1  ZINC000011157684    0.5100
      3 C3         -6.2964    1.7212   51.7944 C.3     1  ZINC000011157684    0.1000
      4 N4         -6.8766    0.8229   52.7957 N.pl3   1  ZINC000011157684   -0.7300
      5 C5         -8.1618    0.3029   52.6080 C.ar    1  ZINC000011157684    0.2200
      6 C6         -9.2728    1.1169   52.7801 C.ar    1  ZINC000011157684   -0.1600
      7 C7        -10.5413    0.6017   52.5938 C.ar    1  ZINC000011157684   -0.0900
      8 C8        -10.7052   -0.7257   52.2364 C.ar    1  ZINC000011157684    0.0500
      9 F9        -11.9466   -1.2271   52.0554 F       1  ZINC000011157684   -0.1400
     10 C10        -9.5986   -1.5403   52.0636 C.ar    1  ZINC000011157684   -0.0900
     11 C11        -8.3278   -1.0281   52.2436 C.ar    1  ZINC000011157684   -0.0900
     12 Cl12       -6.9407   -2.0493   52.0270 Cl      1  ZINC000011157684   -0.0500
     13 N13        -3.9907    2.5903   52.0101 N.am    1  ZINC000011157684   -0.7200
     14 C14        -2.5365    2.4154   51.9813 C.3     1  ZINC000011157684    0.2600
     15 H15        -2.2953    1.3581   52.0913 H       1  ZINC000011157684    0.1200
     16 C16        -1.9144    3.1929   53.1125 C.2     1  ZINC000011157684   -0.1900
     17 C17        -2.5668    3.6466   54.1838 C.2     1  ZINC000011157684   -0.1200
     18 C18        -1.7845    4.3360   55.0944 C.2     1  ZINC000011157684   -0.1300
     19 C19        -0.4969    4.4420   54.7625 C.2     1  ZINC000011157684   -0.2100
     20 S20        -0.2155    3.6340   53.2257 S.3     1  ZINC000011157684    0.1100
     21 C21        -1.9958    2.9198   50.6681 C.ar    1  ZINC000011157684   -0.0900
     22 C22        -1.7940    4.2741   50.4782 C.ar    1  ZINC000011157684   -0.1100
     23 C23        -1.2980    4.7368   49.2737 C.ar    1  ZINC000011157684   -0.1100
     24 C24        -1.0034    3.8451   48.2593 C.ar    1  ZINC000011157684   -0.1100
     25 C25        -1.2043    2.4908   48.4496 C.ar    1  ZINC000011157684   -0.1100
     26 C26        -1.6962    2.0277   49.6555 C.ar    1  ZINC000011157684   -0.1000
     27 H27        -6.5332    2.7536   52.0519 H       1  ZINC000011157684    0.1000
     28 H28        -6.7101    1.4874   50.8134 H       1  ZINC000011157684    0.1000
     29 H29        -6.3697    0.5885   53.5888 H       1  ZINC000011157684    0.4200
     30 H30        -9.1460    2.1524   53.0596 H       1  ZINC000011157684    0.1400
     31 H31       -11.4058    1.2349   52.7276 H       1  ZINC000011157684    0.1400
     32 H32        -9.7287   -2.5754   51.7844 H       1  ZINC000011157684    0.1500
     33 H33        -4.3707    3.4611   52.2055 H       1  ZINC000011157684    0.4000
     34 H34        -3.6251    3.4886   54.3295 H       1  ZINC000011157684    0.1400
     35 H35        -2.1864    4.7564   56.0044 H       1  ZINC000011157684    0.1400
     36 H36         0.2581    4.9438   55.3494 H       1  ZINC000011157684    0.1700
     37 H37        -2.0242    4.9707   51.2707 H       1  ZINC000011157684    0.1200
     38 H38        -1.1411    5.7950   49.1251 H       1  ZINC000011157684    0.1300
     39 H39        -0.6165    4.2067   47.3179 H       1  ZINC000011157684    0.1300
     40 H40        -0.9744    1.7942   47.6569 H       1  ZINC000011157684    0.1300
     41 H41        -1.8531    0.9696   49.8042 H       1  ZINC000011157684    0.1300
@<TRIPOS>BOND
     1     1     2    2
     2     2     3    1
     3     2    13   am
     4     3     4    1
     5     3    27    1
     6     3    28    1
     7     4     5    1
     8     4    29    1
     9     5    11   ar
    10     5     6   ar
    11     6     7   ar
    12     6    30    1
    13     7     8   ar
    14     7    31    1
    15     8     9    1
    16     8    10   ar
    17    10    11   ar
    18    10    32    1
    19    11    12    1
    20    13    14    1
    21    13    33    1
    22    14    15    1
    23    14    16    1
    24    14    21    1
    25    16    20    1
    26    16    17    2
    27    17    18    1
    28    17    34    1
    29    18    19    2
    30    18    35    1
    31    19    20    1
    32    19    36    1
    33    21    26   ar
    34    21    22   ar
    35    22    23   ar
    36    22    37    1
    37    23    24   ar
    38    23    38    1
    39    24    25   ar
    40    24    39    1
    41    25    26   ar
    42    25    40    1
    43    26    41    1
@<TRIPOS>SUBSTRUCTURE
     1 ZINC000011157684        1 TEMP              0 ****  ****    0 ROOT


##########                                Name:    ZINC001078748831
##########                DOCK_Rotatable_Bonds:                   6
##########                         Heavy_Atoms:                  23
##########                    Molecular_Weight:             333.417
##########                DOCK_Rotatable_Bonds:                   6
##########                       Formal_Charge:           0.0299999
##########                     HBond_Acceptors:                   9
##########                        HBond_Donors:                   2
##########                         Heavy_Atoms:                  23
##########                          Grid_Score:          -30.699375
##########                     Grid_vdw_energy:          -28.891043
##########                      Grid_es_energy:           -1.808333
##########           Internal_energy_repulsive:            5.648844

@<TRIPOS>MOLECULE
ZINC001078748831
 42 45 1 0 0
SMALL
USER_CHARGES


@<TRIPOS>ATOM
      1 C1         -0.1044    1.7626   60.6050 C.3     1  ZINC001078748831    0.1000
      2 N2         -0.6805    1.8858   59.2636 N.pl3   1  ZINC001078748831   -0.1400
      3 N3         -1.4225    0.9965   58.7067 N.2     1  ZINC001078748831   -0.2900
      4 C4         -1.7705    1.4151   57.5137 C.2     1  ZINC001078748831    0.0400
      5 C5         -1.1682    2.6799   57.3607 C.2     1  ZINC001078748831   -0.0500
      6 C6         -1.2530    3.5749   56.1875 C.2     1  ZINC001078748831    0.6200
      7 O7         -0.9272    4.7416   56.2883 O.2     1  ZINC001078748831   -0.5200
      8 N8         -1.6915    3.0972   55.0059 N.am    1  ZINC001078748831   -0.7000
      9 C9         -1.7770    3.9848   53.8434 C.3     1  ZINC001078748831    0.1500
     10 H10        -1.8108    5.0394   54.1168 H       1  ZINC001078748831    0.1100
     11 C11        -2.8617    3.5740   52.8311 C.3     1  ZINC001078748831   -0.1800
     12 C12        -1.7879    2.7138   52.1402 C.3     1  ZINC001078748831    0.0800
     13 H13        -1.7273    1.6963   52.5263 H       1  ZINC001078748831    0.1000
     14 N14        -1.8450    2.7656   50.6733 N.3     1  ZINC001078748831   -0.6700
     15 C15        -1.3559    1.5126   50.0827 C.3     1  ZINC001078748831    0.1400
     16 C16        -1.2213    1.6791   48.5910 C.2     1  ZINC001078748831    0.0600
     17 N17        -1.4125    0.7169   47.7317 N.2     1  ZINC001078748831   -0.5700
     18 S18        -1.1807    1.2844   46.2972 S.3     1  ZINC001078748831    0.6800
     19 N19        -0.8310    2.7562   46.6781 N.2     1  ZINC001078748831   -0.5700
     20 C20        -0.8871    2.8699   47.9762 C.2     1  ZINC001078748831    0.0500
     21 C21        -0.7552    3.6661   52.7515 C.3     1  ZINC001078748831   -0.1000
     22 C22        -0.1133    4.7766   51.9190 C.3     1  ZINC001078748831   -0.1000
     23 C23         1.1191    4.6279   52.8296 C.3     1  ZINC001078748831   -0.1400
     24 C24         0.6538    3.1858   53.1010 C.3     1  ZINC001078748831   -0.1200
     25 N25        -0.5146    2.9004   58.4912 N.2     1  ZINC001078748831   -0.2500
     26 H26        -0.7988    2.1735   61.3378 H       1  ZINC001078748831    0.1000
     27 H27         0.0779    0.7111   60.8270 H       1  ZINC001078748831    0.1100
     28 H28         0.8364    2.3115   60.6482 H       1  ZINC001078748831    0.1100
     29 H29        -2.3902    0.8974   56.7965 H       1  ZINC001078748831    0.2100
     30 H30        -1.9503    2.1660   54.9252 H       1  ZINC001078748831    0.4100
     31 H31        -3.6707    2.9909   53.2713 H       1  ZINC001078748831    0.0700
     32 H32        -3.2202    4.4001   52.2169 H       1  ZINC001078748831    0.1000
     33 H33        -2.7793    2.9749   50.3549 H       1  ZINC001078748831    0.3500
     34 H34        -0.3843    1.2646   50.5098 H       1  ZINC001078748831    0.1000
     35 H35        -2.0622    0.7102   50.2965 H       1  ZINC001078748831    0.0600
     36 H36        -0.6889    3.7880   48.5093 H       1  ZINC001078748831    0.2000
     37 H37         0.0720    4.4948   50.8825 H       1  ZINC001078748831    0.1000
     38 H38        -0.6141    5.7399   52.0144 H       1  ZINC001078748831    0.0700
     39 H39         2.0666    4.6869   52.2940 H       1  ZINC001078748831    0.0700
     40 H40         1.0900    5.2687   53.7109 H       1  ZINC001078748831    0.0800
     41 H41         0.7658    2.8784   54.1408 H       1  ZINC001078748831    0.0700
     42 H42         1.0548    2.4568   52.3969 H       1  ZINC001078748831    0.0900
@<TRIPOS>BOND
     1     1     2    1
     2     1    26    1
     3     1    27    1
     4     1    28    1
     5     2    25    1
     6     2     3    1
     7     3     4    2
     8     4     5    1
     9     4    29    1
    10     5     6    1
    11     5    25    2
    12     6     7    2
    13     6     8   am
    14     8     9    1
    15     8    30    1
    16     9    10    1
    17     9    21    1
    18     9    11    1
    19    11    12    1
    20    11    31    1
    21    11    32    1
    22    12    13    1
    23    12    14    1
    24    12    21    1
    25    14    15    1
    26    14    33    1
    27    15    16    1
    28    15    34    1
    29    15    35    1
    30    16    20    1
    31    16    17    2
    32    17    18    1
    33    18    19    1
    34    19    20    2
    35    20    36    1
    36    21    24    1
    37    21    22    1
    38    22    23    1
    39    22    37    1
    40    22    38    1
    41    23    24    1
    42    23    39    1
    43    23    40    1
    44    24    41    1
    45    24    42    1
@<TRIPOS>SUBSTRUCTURE
     1 ZINC001078748831        1 TEMP              0 ****  ****    0 ROOT


##########                                Name:    ZINC000432833246
##########                DOCK_Rotatable_Bonds:                   5
##########                         Heavy_Atoms:                  25
##########                    Molecular_Weight:             400.318
##########                DOCK_Rotatable_Bonds:                   5
##########                       Formal_Charge:        -3.20375e-07
##########                     HBond_Acceptors:                   4
##########                        HBond_Donors:                   1
##########                         Heavy_Atoms:                  25
##########                          Grid_Score:          -30.697813
##########                     Grid_vdw_energy:          -29.658350
##########                      Grid_es_energy:           -1.039464
##########           Internal_energy_repulsive:           10.703324

@<TRIPOS>MOLECULE
ZINC000432833246
 47 51 1 0 0
SMALL
USER_CHARGES


@<TRIPOS>ATOM
      1 O1         -6.1852    4.9804   53.9071 O.2     1  ZINC000432833246   -0.5200
      2 C2         -5.3638    4.2141   53.4499 C.2     1  ZINC000432833246    0.5200
      3 C3         -3.8740    4.4713   53.3965 C.3     1  ZINC000432833246   -0.1500
      4 C4         -3.2577    3.0775   53.1345 C.3     1  ZINC000432833246   -0.1100
      5 H5         -2.9849    2.5896   54.0703 H       1  ZINC000432833246    0.1000
      6 C6         -2.0499    3.1796   52.2009 C.3     1  ZINC000432833246    0.1300
      7 N7         -2.4734    3.7359   50.9135 N.pl3   1  ZINC000432833246   -0.7200
      8 C8         -1.7518    3.4513   49.7642 C.ar    1  ZINC000432833246    0.2800
      9 C9         -1.0934    4.4758   49.0432 C.ar    1  ZINC000432833246   -0.1500
     10 C10        -1.1454    5.8124   49.4627 C.ar    1  ZINC000432833246   -0.0700
     11 C11        -0.4981    6.7706   48.7422 C.ar    1  ZINC000432833246   -0.1300
     12 C12         0.2149    6.4395   47.5926 C.ar    1  ZINC000432833246   -0.0600
     13 C13         0.2856    5.1508   47.1573 C.ar    1  ZINC000432833246   -0.0800
     14 Br14        1.2615    4.7294   45.5933 Br      1  ZINC000432833246   -0.0300
     15 C15        -0.3695    4.1347   47.8759 C.ar    1  ZINC000432833246    0.1900
     16 N16        -0.3162    2.8607   47.4714 N.ar    1  ZINC000432833246   -0.5000
     17 C17        -0.9224    1.9016   48.1319 C.ar    1  ZINC000432833246    0.2400
     18 C18        -0.8235    0.4866   47.6234 C.3     1  ZINC000432833246   -0.1100
     19 C19        -0.6742    0.2873   46.1137 C.3     1  ZINC000432833246   -0.1700
     20 C20         0.5178    0.0377   47.0399 C.3     1  ZINC000432833246   -0.1600
     21 C21        -1.6476    2.1536   49.2882 C.ar    1  ZINC000432833246   -0.2700
     22 C22        -4.4281    2.3398   52.4471 C.3     1  ZINC000432833246    0.1100
     23 N23        -5.6443    3.0102   52.9219 N.am    1  ZINC000432833246   -0.5900
     24 C24        -6.9919    2.4438   52.8247 C.3     1  ZINC000432833246    0.0800
     25 C25        -7.1137    0.9212   52.7368 C.3     1  ZINC000432833246   -0.1900
     26 C26        -7.5117    1.6475   54.0232 C.3     1  ZINC000432833246   -0.1900
     27 H27        -3.6336    5.1540   52.5815 H       1  ZINC000432833246    0.1100
     28 H28        -3.5217    4.8716   54.3472 H       1  ZINC000432833246    0.1000
     29 H29        -1.2988    3.8304   52.6485 H       1  ZINC000432833246    0.0800
     30 H30        -1.6255    2.1876   52.0461 H       1  ZINC000432833246    0.0700
     31 H31        -3.2587    4.3033   50.8651 H       1  ZINC000432833246    0.4000
     32 H32        -1.6958    6.0811   50.3522 H       1  ZINC000432833246    0.1300
     33 H33        -0.5388    7.8001   49.0663 H       1  ZINC000432833246    0.1400
     34 H34         0.7192    7.2165   47.0376 H       1  ZINC000432833246    0.1400
     35 H35        -1.4054   -0.2526   48.1737 H       1  ZINC000432833246    0.1300
     36 H36        -1.1583   -0.5831   45.6707 H       1  ZINC000432833246    0.1000
     37 H37        -0.6476    1.1797   45.4885 H       1  ZINC000432833246    0.1000
     38 H38         1.3287    0.7659   47.0238 H       1  ZINC000432833246    0.0900
     39 H39         0.8180   -0.9969   47.2061 H       1  ZINC000432833246    0.1000
     40 H40        -2.1351    1.3436   49.8101 H       1  ZINC000432833246    0.1400
     41 H41        -4.3438    2.4258   51.3638 H       1  ZINC000432833246    0.0800
     42 H42        -4.4386    1.2909   52.7433 H       1  ZINC000432833246    0.0900
     43 H43        -7.7131    3.0398   52.2654 H       1  ZINC000432833246    0.1300
     44 H44        -7.9150    0.5151   52.1195 H       1  ZINC000432833246    0.1000
     45 H45        -6.1911    0.3409   52.7514 H       1  ZINC000432833246    0.1300
     46 H46        -6.8511    1.5450   54.8841 H       1  ZINC000432833246    0.0900
     47 H47        -8.5750    1.7193   54.2522 H       1  ZINC000432833246    0.1000
@<TRIPOS>BOND
     1     1     2    2
     2     2    23   am
     3     2     3    1
     4     3     4    1
     5     3    27    1
     6     3    28    1
     7     4     5    1
     8     4     6    1
     9     4    22    1
    10     6     7    1
    11     6    29    1
    12     6    30    1
    13     7     8    1
    14     7    31    1
    15     8    21   ar
    16     8     9   ar
    17     9    15   ar
    18     9    10   ar
    19    10    11   ar
    20    10    32    1
    21    11    12   ar
    22    11    33    1
    23    12    13   ar
    24    12    34    1
    25    13    14    1
    26    13    15   ar
    27    15    16   ar
    28    16    17   ar
    29    17    18    1
    30    17    21   ar
    31    18    20    1
    32    18    19    1
    33    18    35    1
    34    19    20    1
    35    19    36    1
    36    19    37    1
    37    20    38    1
    38    20    39    1
    39    21    40    1
    40    22    23    1
    41    22    41    1
    42    22    42    1
    43    23    24    1
    44    24    26    1
    45    24    25    1
    46    24    43    1
    47    25    26    1
    48    25    44    1
    49    25    45    1
    50    26    46    1
    51    26    47    1
@<TRIPOS>SUBSTRUCTURE
     1 ZINC000432833246        1 TEMP              0 ****  ****    0 ROOT


##########                                Name:    ZINC000486710336
##########                DOCK_Rotatable_Bonds:                   6
##########                         Heavy_Atoms:                  31
##########                    Molecular_Weight:             420.555
##########                DOCK_Rotatable_Bonds:                   6
##########                       Formal_Charge:         1.49012e-07
##########                     HBond_Acceptors:                   6
##########                        HBond_Donors:                   1
##########                         Heavy_Atoms:                  31
##########                          Grid_Score:          -30.689629
##########                     Grid_vdw_energy:          -29.984344
##########                      Grid_es_energy:           -0.705284
##########           Internal_energy_repulsive:           64.307259

@<TRIPOS>MOLECULE
ZINC000486710336
 63 67 1 0 0
SMALL
USER_CHARGES


@<TRIPOS>ATOM
      1 C1        -15.1591   -2.3042   59.2649 C.3     1  ZINC000486710336    0.1000
      2 N2        -13.7870   -1.8006   59.3634 N.pl3   1  ZINC000486710336   -0.3900
      3 N3        -13.0637   -1.6023   60.5464 N.2     1  ZINC000486710336   -0.2800
      4 C4        -11.8782   -1.1444   60.2345 C.2     1  ZINC000486710336    0.1000
      5 C5        -10.7836   -0.7962   61.2100 C.3     1  ZINC000486710336   -0.0100
      6 C6         -9.7394    0.1336   60.5438 C.3     1  ZINC000486710336   -0.1200
      7 C7         -9.0953    0.8490   61.7573 C.3     1  ZINC000486710336   -0.1200
      8 C8        -10.2730    1.0877   62.7246 C.3     1  ZINC000486710336   -0.1200
      9 C9        -11.3465    0.0415   62.3767 C.3     1  ZINC000486710336   -0.1100
     10 C10       -11.7989   -1.0328   58.8443 C.2     1  ZINC000486710336   -0.2600
     11 C11       -12.9872   -1.4480   58.3235 C.2     1  ZINC000486710336    0.3000
     12 N12       -13.3230   -1.4951   56.9734 N.am    1  ZINC000486710336   -0.6200
     13 C13       -12.6492   -2.3116   56.1395 C.2     1  ZINC000486710336    0.5100
     14 O14       -11.7483   -3.0050   56.5653 O.2     1  ZINC000486710336   -0.4800
     15 C15       -13.0105   -2.3634   54.6917 C.2     1  ZINC000486710336    0.5300
     16 O16       -14.1707   -2.4933   54.3602 O.2     1  ZINC000486710336   -0.5100
     17 N17       -12.0483   -2.2659   53.7530 N.am    1  ZINC000486710336   -0.5800
     18 C18       -10.6043   -2.1103   54.0048 C.3     1  ZINC000486710336    0.1000
     19 C19        -9.9103   -2.0064   52.6285 C.3     1  ZINC000486710336   -0.0600
     20 H20        -9.5375   -2.9796   52.3091 H       1  ZINC000486710336    0.1000
     21 C21        -8.7936   -0.9953   52.6680 C.ar    1  ZINC000486710336   -0.0700
     22 C22        -7.6810   -1.1625   51.8649 C.ar    1  ZINC000486710336   -0.1100
     23 C23        -6.6567   -0.2349   51.9011 C.ar    1  ZINC000486710336   -0.1200
     24 C24        -6.7452    0.8600   52.7401 C.ar    1  ZINC000486710336   -0.1200
     25 C25        -7.8581    1.0277   53.5427 C.ar    1  ZINC000486710336   -0.1200
     26 C26        -8.8844    0.1025   53.5033 C.ar    1  ZINC000486710336   -0.1100
     27 C27       -11.0658   -1.5244   51.6986 C.3     1  ZINC000486710336   -0.0800
     28 H28       -10.8949   -1.7712   50.6508 H       1  ZINC000486710336    0.1100
     29 C29       -11.2111   -0.0184   51.9271 C.3     1  ZINC000486710336   -0.1100
     30 C30       -12.5538    0.4802   51.3983 C.3     1  ZINC000486710336   -0.1200
     31 C31       -13.6763   -0.2181   52.1735 C.3     1  ZINC000486710336   -0.1100
     32 C32       -13.5951   -1.7189   51.8943 C.3     1  ZINC000486710336   -0.1400
     33 C33       -12.2526   -2.3021   52.3026 C.3     1  ZINC000486710336    0.1400
     34 H34       -12.2139   -3.3429   51.9809 H       1  ZINC000486710336    0.0800
     35 H35       -15.1425   -3.3915   59.1888 H       1  ZINC000486710336    0.0800
     36 H36       -15.7186   -2.0107   60.1531 H       1  ZINC000486710336    0.1000
     37 H37       -15.6372   -1.8853   58.3795 H       1  ZINC000486710336    0.0800
     38 H38       -10.3067   -1.7015   61.5858 H       1  ZINC000486710336    0.0900
     39 H39        -8.9958   -0.4482   59.9992 H       1  ZINC000486710336    0.0700
     40 H40       -10.2267    0.8528   59.8855 H       1  ZINC000486710336    0.0800
     41 H41        -8.3435    0.2107   62.2216 H       1  ZINC000486710336    0.0700
     42 H42        -8.6548    1.7979   61.4510 H       1  ZINC000486710336    0.0700
     43 H43        -9.9426    0.9552   63.7549 H       1  ZINC000486710336    0.0600
     44 H44       -10.6721    2.0924   62.5863 H       1  ZINC000486710336    0.0600
     45 H45       -12.2666    0.5388   62.0695 H       1  ZINC000486710336    0.0700
     46 H46       -11.5372   -0.5986   63.2381 H       1  ZINC000486710336    0.0700
     47 H47       -10.9456   -0.6833   58.2821 H       1  ZINC000486710336    0.1700
     48 H48       -14.0420   -0.9402   56.6329 H       1  ZINC000486710336    0.4200
     49 H49       -10.4237   -1.2027   54.5808 H       1  ZINC000486710336    0.0900
     50 H50       -10.2265   -2.9776   54.5463 H       1  ZINC000486710336    0.0800
     51 H51        -7.6120   -2.0180   51.2094 H       1  ZINC000486710336    0.1200
     52 H52        -5.7872   -0.3660   51.2741 H       1  ZINC000486710336    0.1200
     53 H53        -5.9445    1.5843   52.7689 H       1  ZINC000486710336    0.1200
     54 H54        -7.9270    1.8831   54.1985 H       1  ZINC000486710336    0.1200
     55 H55        -9.7539    0.2335   54.1303 H       1  ZINC000486710336    0.1200
     56 H56       -11.1457    0.1906   52.9949 H       1  ZINC000486710336    0.0700
     57 H57       -10.4056    0.5026   51.4099 H       1  ZINC000486710336    0.0700
     58 H58       -12.6260    1.5583   51.5421 H       1  ZINC000486710336    0.0600
     59 H59       -12.6398    0.2438   50.3377 H       1  ZINC000486710336    0.0600
     60 H60       -13.5533   -0.0362   53.2410 H       1  ZINC000486710336    0.0500
     61 H61       -14.6425    0.1645   51.8445 H       1  ZINC000486710336    0.0600
     62 H62       -14.3855   -2.2279   52.4458 H       1  ZINC000486710336    0.1000
     63 H63       -13.7369   -1.8919   50.8275 H       1  ZINC000486710336    0.0700
@<TRIPOS>BOND
     1     1     2    1
     2     1    35    1
     3     1    36    1
     4     1    37    1
     5     2    11    1
     6     2     3    1
     7     3     4    2
     8     4     5    1
     9     4    10    1
    10     5     9    1
    11     5     6    1
    12     5    38    1
    13     6     7    1
    14     6    39    1
    15     6    40    1
    16     7     8    1
    17     7    41    1
    18     7    42    1
    19     8     9    1
    20     8    43    1
    21     8    44    1
    22     9    45    1
    23     9    46    1
    24    10    11    2
    25    10    47    1
    26    11    12    1
    27    12    13   am
    28    12    48    1
    29    13    14    2
    30    13    15    1
    31    15    16    2
    32    15    17   am
    33    17    33    1
    34    17    18    1
    35    18    19    1
    36    18    49    1
    37    18    50    1
    38    19    20    1
    39    19    21    1
    40    19    27    1
    41    21    26   ar
    42    21    22   ar
    43    22    23   ar
    44    22    51    1
    45    23    24   ar
    46    23    52    1
    47    24    25   ar
    48    24    53    1
    49    25    26   ar
    50    25    54    1
    51    26    55    1
    52    27    28    1
    53    27    33    1
    54    27    29    1
    55    29    30    1
    56    29    56    1
    57    29    57    1
    58    30    31    1
    59    30    58    1
    60    30    59    1
    61    31    32    1
    62    31    60    1
    63    31    61    1
    64    32    33    1
    65    32    62    1
    66    32    63    1
    67    33    34    1
@<TRIPOS>SUBSTRUCTURE
     1 ZINC000486710336        1 TEMP              0 ****  ****    0 ROOT


##########                                Name:    ZINC001122903793
##########                DOCK_Rotatable_Bonds:                   4
##########                         Heavy_Atoms:                  25
##########                    Molecular_Weight:             399.968
##########                DOCK_Rotatable_Bonds:                   4
##########                       Formal_Charge:           0.0100003
##########                     HBond_Acceptors:                   9
##########                        HBond_Donors:                   0
##########                         Heavy_Atoms:                  25
##########                          Grid_Score:          -30.679401
##########                     Grid_vdw_energy:          -30.556997
##########                      Grid_es_energy:           -0.122404
##########           Internal_energy_repulsive:           23.691708

@<TRIPOS>MOLECULE
ZINC001122903793
 47 50 1 0 0
SMALL
USER_CHARGES


@<TRIPOS>ATOM
      1 C1        -13.3159   -4.8587   56.6908 C.3     1  ZINC001122903793   -0.1400
      2 C2        -13.4893   -3.6866   55.7229 C.3     1  ZINC001122903793   -0.0400
      3 H3        -13.5914   -2.7588   56.2859 H       1  ZINC001122903793    0.1000
      4 S4        -14.9730   -3.9496   54.7041 S.3     1  ZINC001122903793   -0.2500
      5 C5        -14.8256   -2.6170   53.4748 C.3     1  ZINC001122903793   -0.0800
      6 C6        -13.4242   -2.6775   52.8576 C.3     1  ZINC001122903793    0.0700
      7 N7        -12.4138   -2.4546   53.8941 N.3     1  ZINC001122903793   -0.4800
      8 C8        -11.1948   -2.1102   53.3333 C.2     1  ZINC001122903793    0.3700
      9 N9        -10.5250   -2.8031   52.4421 N.2     1  ZINC001122903793   -0.2900
     10 N10        -9.4344   -2.1955   52.1374 N.2     1  ZINC001122903793   -0.2400
     11 C11        -9.3408   -1.0742   52.8173 C.2     1  ZINC001122903793    0.2600
     12 C12        -8.2407   -0.0983   52.7499 C.2     1  ZINC001122903793   -0.1600
     13 C13        -7.0682   -0.2616   52.0924 C.2     1  ZINC001122903793    0.1600
     14 Cl14       -6.6780   -1.6995   51.2014 Cl      1  ZINC001122903793    0.0300
     15 N15        -6.2511    0.7635   52.1878 N.2     1  ZINC001122903793   -0.4600
     16 C16        -6.6520    1.7786   52.8787 C.2     1  ZINC001122903793    0.0300
     17 S17        -8.2174    1.4942   53.5036 S.3     1  ZINC001122903793    0.2200
     18 N18       -10.4693   -0.9835   53.6010 N.pl3   1  ZINC001122903793   -0.4600
     19 C19       -10.8162    0.0926   54.5326 C.3     1  ZINC001122903793    0.1100
     20 C20       -11.8099    1.0450   53.8645 C.3     1  ZINC001122903793    0.0700
     21 H21       -12.7676    0.5469   53.7138 H       1  ZINC001122903793    0.0800
     22 C22       -11.9962    2.3192   54.7264 C.3     1  ZINC001122903793   -0.1500
     23 C23       -12.4516    3.3402   53.6484 C.3     1  ZINC001122903793   -0.1500
     24 C24       -11.6581    2.8811   52.4061 C.3     1  ZINC001122903793    0.0500
     25 O25       -11.2875    1.5112   52.6102 O.3     1  ZINC001122903793   -0.3700
     26 C26       -12.2696   -3.5968   54.7994 C.3     1  ZINC001122903793    0.1000
     27 H27       -12.1945   -4.5143   54.2157 H       1  ZINC001122903793    0.0800
     28 C28       -11.0024   -3.4233   55.6389 C.3     1  ZINC001122903793   -0.1500
     29 H29       -12.4224   -4.7019   57.2952 H       1  ZINC001122903793    0.0800
     30 H30       -14.1879   -4.9245   57.3417 H       1  ZINC001122903793    0.0700
     31 H31       -13.2140   -5.7849   56.1252 H       1  ZINC001122903793    0.0700
     32 H32       -15.5753   -2.7531   52.6954 H       1  ZINC001122903793    0.1200
     33 H33       -14.9701   -1.6524   53.9614 H       1  ZINC001122903793    0.0900
     34 H34       -13.2695   -3.6573   52.4057 H       1  ZINC001122903793    0.0700
     35 H35       -13.3327   -1.9081   52.0910 H       1  ZINC001122903793    0.0900
     36 H36        -6.0805    2.6814   53.0356 H       1  ZINC001122903793    0.2100
     37 H37       -11.2678   -0.3338   55.4283 H       1  ZINC001122903793    0.1200
     38 H38        -9.9149    0.6411   54.8061 H       1  ZINC001122903793    0.1000
     39 H39       -12.7690    2.1735   55.4809 H       1  ZINC001122903793    0.0900
     40 H40       -11.0553    2.6247   55.1842 H       1  ZINC001122903793    0.0800
     41 H41       -13.5247    3.2659   53.4726 H       1  ZINC001122903793    0.0800
     42 H42       -12.1733    4.3550   53.9331 H       1  ZINC001122903793    0.0900
     43 H43       -12.2826    2.9651   51.5167 H       1  ZINC001122903793    0.0700
     44 H44       -10.7641    3.4939   52.2911 H       1  ZINC001122903793    0.0700
     45 H45       -11.0752   -2.5045   56.2211 H       1  ZINC001122903793    0.0600
     46 H46       -10.8941   -4.2728   56.3132 H       1  ZINC001122903793    0.0800
     47 H47       -10.1352   -3.3687   54.9809 H       1  ZINC001122903793    0.0600
@<TRIPOS>BOND
     1     1     2    1
     2     1    29    1
     3     1    30    1
     4     1    31    1
     5     2     3    1
     6     2    26    1
     7     2     4    1
     8     4     5    1
     9     5     6    1
    10     5    32    1
    11     5    33    1
    12     6     7    1
    13     6    34    1
    14     6    35    1
    15     7     8    1
    16     7    26    1
    17     8    18    1
    18     8     9    2
    19     9    10    1
    20    10    11    2
    21    11    12    1
    22    11    18    1
    23    12    17    1
    24    12    13    2
    25    13    14    1
    26    13    15    1
    27    15    16    2
    28    16    17    1
    29    16    36    1
    30    18    19    1
    31    19    20    1
    32    19    37    1
    33    19    38    1
    34    20    21    1
    35    20    25    1
    36    20    22    1
    37    22    23    1
    38    22    39    1
    39    22    40    1
    40    23    24    1
    41    23    41    1
    42    23    42    1
    43    24    25    1
    44    24    43    1
    45    24    44    1
    46    26    27    1
    47    26    28    1
    48    28    45    1
    49    28    46    1
    50    28    47    1
@<TRIPOS>SUBSTRUCTURE
     1 ZINC001122903793        1 TEMP              0 ****  ****    0 ROOT


##########                                Name:    ZINC001011676549
##########                DOCK_Rotatable_Bonds:                   6
##########                         Heavy_Atoms:                  24
##########                    Molecular_Weight:             330.387
##########                DOCK_Rotatable_Bonds:                   6
##########                       Formal_Charge:        -1.49012e-07
##########                     HBond_Acceptors:                   7
##########                        HBond_Donors:                   1
##########                         Heavy_Atoms:                  24
##########                          Grid_Score:          -30.671492
##########                     Grid_vdw_energy:          -26.475779
##########                      Grid_es_energy:           -4.195714
##########           Internal_energy_repulsive:           13.444655

@<TRIPOS>MOLECULE
ZINC001011676549
 46 48 1 0 0
SMALL
USER_CHARGES


@<TRIPOS>ATOM
      1 C1         -2.6573    1.8104   51.4471 C.3     1  ZINC001011676549   -0.1700
      2 C2         -1.9693    3.0815   50.9450 C.3     1  ZINC001011676549    0.1300
      3 H3         -2.7118    3.7705   50.5426 H       1  ZINC001011676549    0.0900
      4 C4         -1.2014    3.7546   52.1020 C.3     1  ZINC001011676549    0.1400
      5 H5         -1.2454    4.8401   52.0141 H       1  ZINC001011676549    0.1100
      6 N6         -1.7299    3.3195   53.3973 N.am    1  ZINC001011676549   -0.7200
      7 C7         -2.4193    4.1836   54.1684 C.2     1  ZINC001011676549    0.5200
      8 O8         -2.6009    5.3216   53.7906 O.2     1  ZINC001011676549   -0.5300
      9 C9         -2.9645    3.7355   55.4999 C.3     1  ZINC001011676549   -0.0900
     10 C10        -1.8911    3.0001   56.2604 C.ar    1  ZINC001011676549   -0.1800
     11 C11        -2.1745    1.8147   56.9204 C.ar    1  ZINC001011676549    0.1600
     12 N12        -1.2064    1.1969   57.5780 N.ar    1  ZINC001011676549   -0.5200
     13 C13         0.0132    1.6954   57.6097 C.ar    1  ZINC001011676549    0.3000
     14 N14         0.3192    2.8197   56.9941 N.ar    1  ZINC001011676549   -0.5200
     15 C15        -0.5956    3.4898   56.3119 C.ar    1  ZINC001011676549    0.1600
     16 C16         0.2502    3.2458   51.8981 C.3     1  ZINC001011676549   -0.1400
     17 C17         0.3465    3.1912   50.3530 C.3     1  ZINC001011676549    0.1000
     18 N18        -0.9875    2.7411   49.9050 N.am    1  ZINC001011676549   -0.6100
     19 C19        -1.2563    2.1197   48.7396 C.2     1  ZINC001011676549    0.5800
     20 O20        -2.3972    1.7927   48.4738 O.2     1  ZINC001011676549   -0.5300
     21 C21        -0.1698    1.8370   47.7890 C.2     1  ZINC001011676549   -0.1400
     22 C22         0.2114    2.7876   46.9549 C.2     1  ZINC001011676549   -0.1500
     23 C23         1.3055    2.5867   45.9448 C.3     1  ZINC001011676549    0.0900
     24 O24         2.0660    1.4215   46.2700 O.3     1  ZINC001011676549   -0.3800
     25 C25         1.2520    0.2654   46.5012 C.3     1  ZINC001011676549    0.0600
     26 C26         0.4733    0.4773   47.8043 C.3     1  ZINC001011676549   -0.1100
     27 H27        -1.9079    1.1212   51.8366 H       1  ZINC001011676549    0.0600
     28 H28        -3.3613    2.0669   52.2387 H       1  ZINC001011676549    0.0700
     29 H29        -3.1927    1.3377   50.6238 H       1  ZINC001011676549    0.0800
     30 H30        -1.5836    2.4097   53.6999 H       1  ZINC001011676549    0.4100
     31 H31        -3.2843    4.6058   56.0730 H       1  ZINC001011676549    0.1100
     32 H32        -3.8151    3.0730   55.3400 H       1  ZINC001011676549    0.1100
     33 H33        -3.1719    1.4010   56.8986 H       1  ZINC001011676549    0.1700
     34 H34         0.7823    1.1685   58.1550 H       1  ZINC001011676549    0.2000
     35 H35        -0.3381    4.4105   55.8093 H       1  ZINC001011676549    0.1700
     36 H36         0.9727    3.9505   52.3099 H       1  ZINC001011676549    0.0900
     37 H37         0.3816    2.2551   52.3330 H       1  ZINC001011676549    0.0800
     38 H38         0.5661    4.1805   49.9513 H       1  ZINC001011676549    0.0800
     39 H39         1.1110    2.4777   50.0455 H       1  ZINC001011676549    0.0800
     40 H40        -0.2830    3.7467   47.0005 H       1  ZINC001011676549    0.1200
     41 H41         0.8659    2.4665   44.9546 H       1  ZINC001011676549    0.0700
     42 H42         1.9611    3.4575   45.9439 H       1  ZINC001011676549    0.1100
     43 H43         0.5569    0.1349   45.6718 H       1  ZINC001011676549    0.0600
     44 H44         1.8860   -0.6164   46.5939 H       1  ZINC001011676549    0.1000
     45 H45         1.1551    0.4009   48.6512 H       1  ZINC001011676549    0.0900
     46 H46        -0.3013   -0.2846   47.8923 H       1  ZINC001011676549    0.0900
@<TRIPOS>BOND
     1     1     2    1
     2     1    27    1
     3     1    28    1
     4     1    29    1
     5     2     3    1
     6     2    18    1
     7     2     4    1
     8     4     5    1
     9     4     6    1
    10     4    16    1
    11     6     7   am
    12     6    30    1
    13     7     8    2
    14     7     9    1
    15     9    10    1
    16     9    31    1
    17     9    32    1
    18    10    15   ar
    19    10    11   ar
    20    11    12   ar
    21    11    33    1
    22    12    13   ar
    23    13    14   ar
    24    13    34    1
    25    14    15   ar
    26    15    35    1
    27    16    17    1
    28    16    36    1
    29    16    37    1
    30    17    18    1
    31    17    38    1
    32    17    39    1
    33    18    19   am
    34    19    20    2
    35    19    21    1
    36    21    26    1
    37    21    22    2
    38    22    23    1
    39    22    40    1
    40    23    24    1
    41    23    41    1
    42    23    42    1
    43    24    25    1
    44    25    26    1
    45    25    43    1
    46    25    44    1
    47    26    45    1
    48    26    46    1
@<TRIPOS>SUBSTRUCTURE
     1 ZINC001011676549        1 TEMP              0 ****  ****    0 ROOT


##########                                Name:    ZINC001199210165
##########                DOCK_Rotatable_Bonds:                   5
##########                         Heavy_Atoms:                  23
##########                    Molecular_Weight:             375.225
##########                DOCK_Rotatable_Bonds:                   5
##########                       Formal_Charge:         -0.00999999
##########                     HBond_Acceptors:                   6
##########                        HBond_Donors:                   2
##########                         Heavy_Atoms:                  23
##########                          Grid_Score:          -30.663322
##########                     Grid_vdw_energy:          -30.390095
##########                      Grid_es_energy:           -0.273227
##########           Internal_energy_repulsive:            7.911522

@<TRIPOS>MOLECULE
ZINC001199210165
 38 40 1 0 0
SMALL
USER_CHARGES


@<TRIPOS>ATOM
      1 C1         -0.7599    2.5703   51.7474 C.3     1  ZINC001199210165   -0.1700
      2 C2         -1.7832    2.5521   50.6102 C.3     1  ZINC001199210165    0.0800
      3 C3         -1.0642    2.3140   49.2809 C.3     1  ZINC001199210165   -0.1500
      4 O4         -2.7274    1.5033   50.8356 O.3     1  ZINC001199210165   -0.3000
      5 C5         -3.8321    1.8141   51.5595 C.ar    1  ZINC001199210165    0.3300
      6 C6         -4.8060    0.8482   51.7742 C.ar    1  ZINC001199210165   -0.1300
      7 C7         -5.9372    1.1832   52.5211 C.ar    1  ZINC001199210165   -0.0600
      8 C8         -7.0024    0.1863   52.7769 C.2     1  ZINC001199210165    0.5700
      9 O9         -6.7490   -1.0010   52.7231 O.2     1  ZINC001199210165   -0.4900
     10 N10        -8.2527    0.5960   53.0691 N.am    1  ZINC001199210165   -0.6600
     11 C11        -9.2582   -0.3450   53.3105 C.ar    1  ZINC001199210165    0.2000
     12 C12        -9.8941   -0.3757   54.5526 C.ar    1  ZINC001199210165   -0.1500
     13 C13       -10.8769   -1.2859   54.8058 C.ar    1  ZINC001199210165   -0.0200
     14 C14       -11.2541   -2.1987   53.8144 C.ar    1  ZINC001199210165   -0.1700
     15 C15       -12.2389   -3.2751   53.7520 C.2     1  ZINC001199210165    0.0900
     16 Br16      -13.4102   -3.7958   55.1422 Br      1  ZINC001199210165    0.0600
     17 N17       -12.1668   -3.8123   52.5673 N.2     1  ZINC001199210165   -0.2100
     18 N18       -11.1865   -3.1675   51.8060 N.pl3   1  ZINC001199210165   -0.4900
     19 C19       -10.6165   -2.1734   52.5584 C.ar    1  ZINC001199210165    0.1500
     20 C20        -9.6190   -1.2344   52.3150 C.ar    1  ZINC001199210165   -0.1700
     21 C21        -6.0371    2.4861   53.0221 C.ar    1  ZINC001199210165   -0.1900
     22 C22        -5.0230    3.3855   52.7622 C.ar    1  ZINC001199210165    0.1400
     23 N23        -3.9662    3.0317   52.0569 N.ar    1  ZINC001199210165   -0.5200
     24 H24        -0.2388    1.6135   51.7826 H       1  ZINC001199210165    0.0600
     25 H25        -0.0398    3.3702   51.5756 H       1  ZINC001199210165    0.0700
     26 H26        -1.2722    2.7399   52.6945 H       1  ZINC001199210165    0.0600
     27 H27        -2.3044    3.5088   50.5751 H       1  ZINC001199210165    0.0900
     28 H28        -0.5430    1.3573   49.3160 H       1  ZINC001199210165    0.0700
     29 H29        -1.7933    2.3011   48.4706 H       1  ZINC001199210165    0.0600
     30 H30        -0.3440    3.1139   49.1089 H       1  ZINC001199210165    0.0800
     31 H31        -4.6907   -0.1465   51.3695 H       1  ZINC001199210165    0.1600
     32 H32        -8.4550    1.5437   53.1121 H       1  ZINC001199210165    0.4100
     33 H33        -9.6049    0.3273   55.3198 H       1  ZINC001199210165    0.1500
     34 H34       -11.3634   -1.3028   55.7700 H       1  ZINC001199210165    0.1400
     35 H35       -10.9484   -3.3882   50.8919 H       1  ZINC001199210165    0.4500
     36 H36        -9.1268   -1.2024   51.3542 H       1  ZINC001199210165    0.1400
     37 H37        -6.8967    2.7840   53.6041 H       1  ZINC001199210165    0.1400
     38 H38        -5.0940    4.3926   53.1455 H       1  ZINC001199210165    0.1700
@<TRIPOS>BOND
     1     1     2    1
     2     1    24    1
     3     1    25    1
     4     1    26    1
     5     2     3    1
     6     2     4    1
     7     2    27    1
     8     3    28    1
     9     3    29    1
    10     3    30    1
    11     4     5    1
    12     5    23   ar
    13     5     6   ar
    14     6     7   ar
    15     6    31    1
    16     7     8    1
    17     7    21   ar
    18     8     9    2
    19     8    10   am
    20    10    11    1
    21    10    32    1
    22    11    20   ar
    23    11    12   ar
    24    12    13   ar
    25    12    33    1
    26    13    14   ar
    27    13    34    1
    28    14    19   ar
    29    14    15    1
    30    15    16    1
    31    15    17    2
    32    17    18    1
    33    18    19    1
    34    18    35    1
    35    19    20   ar
    36    20    36    1
    37    21    22   ar
    38    21    37    1
    39    22    23   ar
    40    22    38    1
@<TRIPOS>SUBSTRUCTURE
     1 ZINC001199210165        1 TEMP              0 ****  ****    0 ROOT


##########                                Name:    ZINC000279452407
##########                DOCK_Rotatable_Bonds:                   6
##########                         Heavy_Atoms:                  24
##########                    Molecular_Weight:              375.47
##########                DOCK_Rotatable_Bonds:                   6
##########                       Formal_Charge:          0.00999929
##########                     HBond_Acceptors:                  10
##########                        HBond_Donors:                   3
##########                         Heavy_Atoms:                  24
##########                          Grid_Score:          -30.648090
##########                     Grid_vdw_energy:          -29.725170
##########                      Grid_es_energy:           -0.922920
##########           Internal_energy_repulsive:           26.079695

@<TRIPOS>MOLECULE
ZINC000279452407
 45 47 1 0 0
SMALL
USER_CHARGES


@<TRIPOS>ATOM
      1 C1          2.0323    0.4745   49.1556 C.3     1  ZINC000279452407   -0.1600
      2 C2          2.1489   -0.0201   47.7124 C.3     1  ZINC000279452407    0.0600
      3 H3          1.5319   -0.9079   47.5735 H       1  ZINC000279452407    0.0700
      4 O4          3.5219   -0.3252   47.4085 O.3     1  ZINC000279452407   -0.3700
      5 C5          3.7318    0.0116   46.0197 C.3     1  ZINC000279452407    0.0500
      6 C6          2.9341    1.3297   45.8408 C.3     1  ZINC000279452407   -0.1400
      7 C7          1.7019    1.0842   46.7433 C.3     1  ZINC000279452407    0.0700
      8 C8          1.3575    2.3574   47.5119 C.3     1  ZINC000279452407    0.1100
      9 N9          0.0834    2.1447   48.2192 N.am    1  ZINC000279452407   -0.6300
     10 C10        -0.0416    2.4368   49.5290 C.2     1  ZINC000279452407    0.7200
     11 O11         0.9064    2.8832   50.1455 O.2     1  ZINC000279452407   -0.5800
     12 N12        -1.2177    2.2341   50.1553 N.am    1  ZINC000279452407   -0.7500
     13 C13        -1.3536    2.5517   51.5789 C.3     1  ZINC000279452407    0.2000
     14 C14        -2.8034    2.4552   51.9790 C.2     1  ZINC000279452407   -0.1700
     15 C15        -3.4564    3.3479   52.7245 C.2     1  ZINC000279452407   -0.1400
     16 C16        -4.7864    3.0474   52.9629 C.2     1  ZINC000279452407    0.0100
     17 C17        -5.2134    1.9107   52.4110 C.2     1  ZINC000279452407   -0.7900
     18 S18        -6.8502    1.2710   52.5401 S.o2    1  ZINC000279452407    2.7300
     19 N19        -7.4238    1.6905   54.0358 N.am    1  ZINC000279452407   -1.2500
     20 O20        -7.6355    1.9842   51.5946 O.2     1  ZINC000279452407   -0.9600
     21 O21        -6.7289   -0.1448   52.5395 O.2     1  ZINC000279452407   -0.9500
     22 S22        -3.8951    1.1521   51.5278 S.3     1  ZINC000279452407    0.2500
     23 C23        -1.0491    1.6035   47.4509 C.3     1  ZINC000279452407    0.0700
     24 C24        -0.5786    0.3447   46.7135 C.3     1  ZINC000279452407    0.0400
     25 O25         0.5970    0.6527   45.9586 O.3     1  ZINC000279452407   -0.3600
     26 H26         0.9813    0.6171   49.4069 H       1  ZINC000279452407    0.0700
     27 H27         2.4701   -0.2625   49.8288 H       1  ZINC000279452407    0.0600
     28 H28         2.5623    1.4213   49.2591 H       1  ZINC000279452407    0.0800
     29 H29         4.7910    0.1740   45.8203 H       1  ZINC000279452407    0.1000
     30 H30         3.3335   -0.7688   45.3713 H       1  ZINC000279452407    0.0700
     31 H31         3.5116    2.1850   46.1918 H       1  ZINC000279452407    0.1000
     32 H32         2.6332    1.4647   44.8020 H       1  ZINC000279452407    0.1000
     33 H33         2.1452    2.5742   48.2334 H       1  ZINC000279452407    0.1200
     34 H34         1.2553    3.1895   46.8153 H       1  ZINC000279452407    0.0800
     35 H35        -1.9741    1.8779   49.6634 H       1  ZINC000279452407    0.4000
     36 H36        -0.7668    1.8455   52.1664 H       1  ZINC000279452407    0.1000
     37 H37        -0.9929    3.5640   51.7615 H       1  ZINC000279452407    0.0900
     38 H38        -2.9832    4.2376   53.1130 H       1  ZINC000279452407    0.1600
     39 H39        -5.4295    3.6849   53.5516 H       1  ZINC000279452407    0.1600
     40 H40        -6.9640    1.3873   54.8342 H       1  ZINC000279452407    0.4200
     41 H41        -8.2198    2.2395   54.1135 H       1  ZINC000279452407    0.4200
     42 H42        -1.8631    1.3480   48.1292 H       1  ZINC000279452407    0.0900
     43 H43        -1.3895    2.3454   46.7286 H       1  ZINC000279452407    0.0900
     44 H44        -0.3516   -0.4379   47.4375 H       1  ZINC000279452407    0.0600
     45 H45        -1.3643    0.0020   46.0402 H       1  ZINC000279452407    0.1100
@<TRIPOS>BOND
     1     1     2    1
     2     1    26    1
     3     1    27    1
     4     1    28    1
     5     2     3    1
     6     2     7    1
     7     2     4    1
     8     4     5    1
     9     5     6    1
    10     5    29    1
    11     5    30    1
    12     6     7    1
    13     6    31    1
    14     6    32    1
    15     7    25    1
    16     7     8    1
    17     8     9    1
    18     8    33    1
    19     8    34    1
    20     9    10   am
    21     9    23    1
    22    10    11    2
    23    10    12   am
    24    12    13    1
    25    12    35    1
    26    13    14    1
    27    13    36    1
    28    13    37    1
    29    14    22    1
    30    14    15    2
    31    15    16    1
    32    15    38    1
    33    16    17    2
    34    16    39    1
    35    17    18    1
    36    17    22    1
    37    18    19   am
    38    18    20    2
    39    18    21    2
    40    19    40    1
    41    19    41    1
    42    23    24    1
    43    23    42    1
    44    23    43    1
    45    24    25    1
    46    24    44    1
    47    24    45    1
@<TRIPOS>SUBSTRUCTURE
     1 ZINC000279452407        1 TEMP              0 ****  ****    0 ROOT


##########                                Name:    ZINC001098311495
##########                DOCK_Rotatable_Bonds:                   8
##########                         Heavy_Atoms:                  24
##########                    Molecular_Weight:             328.454
##########                DOCK_Rotatable_Bonds:                   8
##########                       Formal_Charge:          0.00999987
##########                     HBond_Acceptors:                   4
##########                        HBond_Donors:                   1
##########                         Heavy_Atoms:                  24
##########                          Grid_Score:          -30.647823
##########                     Grid_vdw_energy:          -30.910280
##########                      Grid_es_energy:            0.262457
##########           Internal_energy_repulsive:           24.019976

@<TRIPOS>MOLECULE
ZINC001098311495
 52 54 1 0 0
SMALL
USER_CHARGES


@<TRIPOS>ATOM
      1 C1         -6.9464   -0.3841   51.8145 C.3     1  ZINC001098311495   -0.1500
      2 C2         -6.5927    1.0380   52.2543 C.3     1  ZINC001098311495    0.0500
      3 O3         -5.2132    1.2920   51.9809 O.3     1  ZINC001098311495   -0.2800
      4 C4         -4.7347    2.5167   52.3144 C.ar    1  ZINC001098311495    0.1900
      5 C5         -5.4776    3.3563   53.1306 C.ar    1  ZINC001098311495   -0.2200
      6 C6         -4.9920    4.6054   53.4638 C.ar    1  ZINC001098311495   -0.0500
      7 C7         -3.7594    5.0265   52.9928 C.ar    1  ZINC001098311495   -0.1700
      8 C8         -3.0049    4.2026   52.1855 C.ar    1  ZINC001098311495   -0.0500
      9 C9         -3.4842    2.9370   51.8404 C.ar    1  ZINC001098311495   -0.1800
     10 C10        -2.6817    2.0498   50.9767 C.2     1  ZINC001098311495    0.5600
     11 O11        -2.8496    0.8463   51.0184 O.2     1  ZINC001098311495   -0.5200
     12 N12        -1.7627    2.5736   50.1416 N.am    1  ZINC001098311495   -0.7200
     13 C13        -0.9671    1.6928   49.2827 C.3     1  ZINC001098311495    0.1600
     14 H14        -1.3206    0.6645   49.3573 H       1  ZINC001098311495    0.1000
     15 C15         0.5344    1.7846   49.6497 C.3     1  ZINC001098311495   -0.1200
     16 C16         1.1968    2.3174   48.3434 C.3     1  ZINC001098311495    0.0500
     17 H17         2.1702    2.7915   48.4689 H       1  ZINC001098311495    0.1100
     18 C18         1.1509    1.1317   47.3330 C.3     1  ZINC001098311495   -0.1500
     19 C19        -0.3473    1.0366   46.9543 C.3     1  ZINC001098311495   -0.1500
     20 C20        -1.0113    2.1824   47.8038 C.3     1  ZINC001098311495    0.0400
     21 H21        -1.9777    2.5345   47.4430 H       1  ZINC001098311495    0.1200
     22 N22         0.1009    3.1987   47.8034 N.3     1  ZINC001098311495   -0.4900
     23 C23         0.4076    3.6428   46.4371 C.3     1  ZINC001098311495    0.0600
     24 C24         0.5266    5.1449   46.4120 C.2     1  ZINC001098311495   -0.1600
     25 C25         0.8261    5.7596   45.2946 C.2     1  ZINC001098311495   -0.1200
     26 C26         1.0516    4.9647   44.0343 C.3     1  ZINC001098311495   -0.1200
     27 C27         0.9451    7.2617   45.2694 C.3     1  ZINC001098311495   -0.1200
     28 H28        -6.7623   -0.4902   50.7455 H       1  ZINC001098311495    0.0700
     29 H29        -6.3302   -1.0975   52.3619 H       1  ZINC001098311495    0.0700
     30 H30        -7.9985   -0.5778   52.0231 H       1  ZINC001098311495    0.0800
     31 H31        -6.7767    1.1441   53.3234 H       1  ZINC001098311495    0.0600
     32 H32        -7.2088    1.7514   51.7070 H       1  ZINC001098311495    0.0600
     33 H33        -6.4393    3.0348   53.5021 H       1  ZINC001098311495    0.1300
     34 H34        -5.5764    5.2575   54.0958 H       1  ZINC001098311495    0.1300
     35 H35        -3.3877    6.0049   53.2594 H       1  ZINC001098311495    0.1300
     36 H36        -2.0445    4.5352   51.8202 H       1  ZINC001098311495    0.1300
     37 H37        -1.6279    3.5337   50.1091 H       1  ZINC001098311495    0.4000
     38 H38         0.9277    0.8008   49.9057 H       1  ZINC001098311495    0.0800
     39 H39         0.6866    2.4853   50.4705 H       1  ZINC001098311495    0.0800
     40 H40         1.7557    1.3533   46.4536 H       1  ZINC001098311495    0.0700
     41 H41         1.4860    0.2096   47.8080 H       1  ZINC001098311495    0.0800
     42 H42        -0.4852    1.2111   45.8872 H       1  ZINC001098311495    0.0700
     43 H43        -0.7550    0.0674   47.2415 H       1  ZINC001098311495    0.0800
     44 H44        -0.3920    3.3305   45.7654 H       1  ZINC001098311495    0.0500
     45 H45         1.3486    3.1983   46.1132 H       1  ZINC001098311495    0.0800
     46 H46         0.3649    5.7147   47.3151 H       1  ZINC001098311495    0.1100
     47 H47         2.1055    4.6976   43.9568 H       1  ZINC001098311495    0.0700
     48 H48         0.7641    5.5640   43.1704 H       1  ZINC001098311495    0.0600
     49 H49         0.4481    4.0575   44.0642 H       1  ZINC001098311495    0.0600
     50 H50        -0.0415    7.7020   45.1254 H       1  ZINC001098311495    0.0700
     51 H51         1.3635    7.6089   46.2141 H       1  ZINC001098311495    0.0600
     52 H52         1.5994    7.5607   44.4505 H       1  ZINC001098311495    0.0600
@<TRIPOS>BOND
     1     1     2    1
     2     1    28    1
     3     1    29    1
     4     1    30    1
     5     2     3    1
     6     2    31    1
     7     2    32    1
     8     3     4    1
     9     4     9   ar
    10     4     5   ar
    11     5     6   ar
    12     5    33    1
    13     6     7   ar
    14     6    34    1
    15     7     8   ar
    16     7    35    1
    17     8     9   ar
    18     8    36    1
    19     9    10    1
    20    10    11    2
    21    10    12   am
    22    12    13    1
    23    12    37    1
    24    13    14    1
    25    13    20    1
    26    13    15    1
    27    15    16    1
    28    15    38    1
    29    15    39    1
    30    16    17    1
    31    16    22    1
    32    16    18    1
    33    18    19    1
    34    18    40    1
    35    18    41    1
    36    19    20    1
    37    19    42    1
    38    19    43    1
    39    20    21    1
    40    20    22    1
    41    22    23    1
    42    23    24    1
    43    23    44    1
    44    23    45    1
    45    24    25    2
    46    24    46    1
    47    25    26    1
    48    25    27    1
    49    26    47    1
    50    26    48    1
    51    26    49    1
    52    27    50    1
    53    27    51    1
    54    27    52    1
@<TRIPOS>SUBSTRUCTURE
     1 ZINC001098311495        1 TEMP              0 ****  ****    0 ROOT


##########                                Name:    ZINC000020646552
##########                DOCK_Rotatable_Bonds:                   5
##########                         Heavy_Atoms:                  29
##########                    Molecular_Weight:             412.556
##########                DOCK_Rotatable_Bonds:                   5
##########                       Formal_Charge:          -0.0200012
##########                     HBond_Acceptors:                   7
##########                        HBond_Donors:                   0
##########                         Heavy_Atoms:                  29
##########                          Grid_Score:          -30.628685
##########                     Grid_vdw_energy:          -30.646154
##########                      Grid_es_energy:            0.017470
##########           Internal_energy_repulsive:           11.394046

@<TRIPOS>MOLECULE
ZINC000020646552
 57 60 1 0 0
SMALL
USER_CHARGES


@<TRIPOS>ATOM
      1 C1        -14.9676    1.6932   63.4160 C.3     1  ZINC000020646552    0.0200
      2 N2        -15.6085    0.5504   62.7517 N.3     1  ZINC000020646552   -0.5400
      3 C3        -14.9488   -0.7097   63.1189 C.3     1  ZINC000020646552    0.0400
      4 C4        -15.7524   -1.8864   62.5549 C.3     1  ZINC000020646552    0.1200
      5 N5        -15.9349   -1.6778   61.1104 N.am    1  ZINC000020646552   -0.6100
      6 C6        -15.6255   -2.6475   60.2269 C.2     1  ZINC000020646552    0.5300
      7 O7        -15.1918   -3.7098   60.6197 O.2     1  ZINC000020646552   -0.5200
      8 C8        -15.8187   -2.4117   58.7511 C.3     1  ZINC000020646552   -0.1500
      9 S9        -15.0197   -3.7412   57.8181 S.3     1  ZINC000020646552    0.0500
     10 C10       -13.4877   -2.9633   57.4280 C.ar    1  ZINC000020646552    0.1500
     11 N11       -12.6829   -2.5357   58.3949 N.ar    1  ZINC000020646552   -0.5200
     12 C12       -11.5302   -1.9501   58.1018 C.ar    1  ZINC000020646552    0.3800
     13 C13       -10.6535   -1.4867   59.2048 C.ar    1  ZINC000020646552   -0.0500
     14 C14        -9.5212   -0.7239   58.9249 C.ar    1  ZINC000020646552   -0.0700
     15 C15        -8.7093   -0.2950   59.9552 C.ar    1  ZINC000020646552   -0.1300
     16 C16        -9.0176   -0.6209   61.2637 C.ar    1  ZINC000020646552   -0.1000
     17 C17       -10.1399   -1.3782   61.5474 C.ar    1  ZINC000020646552   -0.1300
     18 C18       -10.9621   -1.8077   60.5255 C.ar    1  ZINC000020646552   -0.0700
     19 N19       -11.1415   -1.7688   56.8481 N.ar    1  ZINC000020646552   -0.5200
     20 C20       -11.8972   -2.1709   55.8339 C.ar    1  ZINC000020646552    0.2100
     21 C21       -13.0974   -2.7914   56.0949 C.ar    1  ZINC000020646552   -0.2100
     22 C22       -13.9929   -3.2808   54.9904 C.3     1  ZINC000020646552    0.1100
     23 O23       -13.6102   -2.6900   53.7478 O.3     1  ZINC000020646552   -0.3600
     24 C24       -12.2141   -2.8310   53.4621 C.3     1  ZINC000020646552    0.1100
     25 C25       -11.7944   -4.2893   53.6577 C.3     1  ZINC000020646552   -0.1800
     26 C26       -11.9399   -2.4067   52.0179 C.3     1  ZINC000020646552   -0.1400
     27 C27       -11.4242   -1.9419   54.4226 C.3     1  ZINC000020646552   -0.0900
     28 C28       -16.4643   -0.3831   60.6557 C.3     1  ZINC000020646552    0.1100
     29 C29       -15.6327    0.7343   61.2945 C.3     1  ZINC000020646552    0.0400
     30 H30       -15.5217    2.6037   63.1878 H       1  ZINC000020646552    0.0700
     31 H31       -14.9631    1.5312   64.4939 H       1  ZINC000020646552    0.0700
     32 H32       -13.9425    1.7927   63.0592 H       1  ZINC000020646552    0.0300
     33 H33       -13.9404   -0.7264   62.7053 H       1  ZINC000020646552    0.0400
     34 H34       -14.8984   -0.7909   64.2048 H       1  ZINC000020646552    0.0900
     35 H35       -15.2090   -2.8158   62.7249 H       1  ZINC000020646552    0.1000
     36 H36       -16.7254   -1.9332   63.0439 H       1  ZINC000020646552    0.0800
     37 H37       -16.8841   -2.3965   58.5219 H       1  ZINC000020646552    0.1300
     38 H38       -15.3739   -1.4558   58.4746 H       1  ZINC000020646552    0.1200
     39 H39        -9.2793   -0.4690   57.9036 H       1  ZINC000020646552    0.1400
     40 H40        -7.8314    0.2959   59.7395 H       1  ZINC000020646552    0.1300
     41 H41        -8.3795   -0.2832   62.0669 H       1  ZINC000020646552    0.1300
     42 H42       -10.3756   -1.6301   62.5708 H       1  ZINC000020646552    0.1300
     43 H43       -11.8381   -2.3989   60.7481 H       1  ZINC000020646552    0.1300
     44 H44       -13.9133   -4.3652   54.9146 H       1  ZINC000020646552    0.0800
     45 H45       -15.0248   -3.0114   55.2159 H       1  ZINC000020646552    0.1100
     46 H46       -12.3679   -4.9258   52.9839 H       1  ZINC000020646552    0.0700
     47 H47       -10.7316   -4.3939   53.4397 H       1  ZINC000020646552    0.0700
     48 H48       -11.9849   -4.5870   54.6888 H       1  ZINC000020646552    0.0600
     49 H49       -12.2337   -1.3658   51.8830 H       1  ZINC000020646552    0.0700
     50 H50       -10.8768   -2.5149   51.8032 H       1  ZINC000020646552    0.0800
     51 H51       -12.5139   -3.0373   51.3389 H       1  ZINC000020646552    0.0700
     52 H52       -11.5799   -0.8957   54.1594 H       1  ZINC000020646552    0.1000
     53 H53       -10.3631   -2.1800   54.3478 H       1  ZINC000020646552    0.1000
     54 H54       -16.3915   -0.3188   59.5700 H       1  ZINC000020646552    0.0900
     55 H55       -17.5057   -0.2854   60.9621 H       1  ZINC000020646552    0.0800
     56 H56       -16.0782    1.7003   61.0572 H       1  ZINC000020646552    0.0900
     57 H57       -14.6149    0.6975   60.9063 H       1  ZINC000020646552    0.0400
@<TRIPOS>BOND
     1     1     2    1
     2     1    30    1
     3     1    31    1
     4     1    32    1
     5     2    29    1
     6     2     3    1
     7     3     4    1
     8     3    33    1
     9     3    34    1
    10     4     5    1
    11     4    35    1
    12     4    36    1
    13     5     6   am
    14     5    28    1
    15     6     7    2
    16     6     8    1
    17     8     9    1
    18     8    37    1
    19     8    38    1
    20     9    10    1
    21    10    21   ar
    22    10    11   ar
    23    11    12   ar
    24    12    13    1
    25    12    19   ar
    26    13    18   ar
    27    13    14   ar
    28    14    15   ar
    29    14    39    1
    30    15    16   ar
    31    15    40    1
    32    16    17   ar
    33    16    41    1
    34    17    18   ar
    35    17    42    1
    36    18    43    1
    37    19    20   ar
    38    20    27    1
    39    20    21   ar
    40    21    22    1
    41    22    23    1
    42    22    44    1
    43    22    45    1
    44    23    24    1
    45    24    25    1
    46    24    26    1
    47    24    27    1
    48    25    46    1
    49    25    47    1
    50    25    48    1
    51    26    49    1
    52    26    50    1
    53    26    51    1
    54    27    52    1
    55    27    53    1
    56    28    29    1
    57    28    54    1
    58    28    55    1
    59    29    56    1
    60    29    57    1
@<TRIPOS>SUBSTRUCTURE
     1 ZINC000020646552        1 TEMP              0 ****  ****    0 ROOT


##########                                Name:    ZINC000467104849
##########                DOCK_Rotatable_Bonds:                   6
##########                         Heavy_Atoms:                  29
##########                    Molecular_Weight:             421.896
##########                DOCK_Rotatable_Bonds:                   6
##########                       Formal_Charge:           0.0200002
##########                     HBond_Acceptors:                   7
##########                        HBond_Donors:                   0
##########                         Heavy_Atoms:                  29
##########                          Grid_Score:          -30.624142
##########                     Grid_vdw_energy:          -29.876299
##########                      Grid_es_energy:           -0.747842
##########           Internal_energy_repulsive:           67.155685

@<TRIPOS>MOLECULE
ZINC000467104849
 54 56 1 0 0
SMALL
USER_CHARGES


@<TRIPOS>ATOM
      1 C1         -9.4449   -0.7749   60.8915 C.3     1  ZINC000467104849    0.0200
      2 O2         -9.7071   -1.9893   60.1853 O.3     1  ZINC000467104849   -0.3000
      3 C3        -10.2555   -1.8767   58.9460 C.ar    1  ZINC000467104849    0.1000
      4 C4        -10.5676   -0.6272   58.4358 C.ar    1  ZINC000467104849   -0.1700
      5 C5        -11.1248   -0.5145   57.1753 C.ar    1  ZINC000467104849   -0.1200
      6 C6        -11.3721   -1.6465   56.4219 C.ar    1  ZINC000467104849   -0.0800
      7 C7        -11.9800   -1.5180   55.0490 C.3     1  ZINC000467104849   -0.0400
      8 C8        -12.9519   -0.3365   55.0301 C.3     1  ZINC000467104849   -0.1300
      9 C9        -10.8719   -1.2833   54.0205 C.3     1  ZINC000467104849   -0.1600
     10 C10       -12.7221   -2.7844   54.7077 C.2     1  ZINC000467104849    0.5300
     11 O11       -12.4354   -3.4040   53.7053 O.2     1  ZINC000467104849   -0.5300
     12 N12       -13.7046   -3.2284   55.5165 N.am    1  ZINC000467104849   -0.6100
     13 C13       -14.4432   -4.4622   55.2041 C.3     1  ZINC000467104849    0.0600
     14 C14       -14.4423   -5.3550   56.4502 C.3     1  ZINC000467104849    0.0500
     15 O15       -14.9114   -4.6005   57.5702 O.3     1  ZINC000467104849   -0.3700
     16 C16       -14.0871   -3.4829   57.9097 C.3     1  ZINC000467104849    0.1300
     17 H17       -13.0724   -3.8267   58.1108 H       1  ZINC000467104849    0.0800
     18 C18       -14.6405   -2.8031   59.1355 C.ar    1  ZINC000467104849   -0.0900
     19 C19       -13.7904   -2.4201   60.1558 C.ar    1  ZINC000467104849   -0.0500
     20 C20       -14.2962   -1.7965   61.2810 C.ar    1  ZINC000467104849   -0.1400
     21 C21       -15.6550   -1.5548   61.3860 C.ar    1  ZINC000467104849    0.1200
     22 F22       -16.1503   -0.9449   62.4850 F       1  ZINC000467104849   -0.1200
     23 C23       -16.5068   -1.9386   60.3625 C.ar    1  ZINC000467104849   -0.0800
     24 Cl24      -18.2115   -1.6366   60.4918 Cl      1  ZINC000467104849   -0.0400
     25 C25       -15.9974   -2.5580   59.2359 C.ar    1  ZINC000467104849   -0.0700
     26 C26       -14.0661   -2.4973   56.7413 C.3     1  ZINC000467104849    0.0900
     27 C27       -11.0625   -2.8969   56.9250 C.ar    1  ZINC000467104849   -0.1600
     28 C28       -10.4992   -3.0165   58.1850 C.ar    1  ZINC000467104849    0.1100
     29 O29       -10.1942   -4.2453   58.6812 O.3     1  ZINC000467104849   -0.3000
     30 C30       -10.3839   -5.3622   57.8102 C.3     1  ZINC000467104849    0.0200
     31 H31        -9.0092   -1.0066   61.8634 H       1  ZINC000467104849    0.1000
     32 H32        -8.7484   -0.1638   60.3174 H       1  ZINC000467104849    0.0600
     33 H33       -10.3772   -0.2280   61.0323 H       1  ZINC000467104849    0.0600
     34 H34       -10.3760    0.2589   59.0228 H       1  ZINC000467104849    0.1400
     35 H35       -11.3677    0.4602   56.7787 H       1  ZINC000467104849    0.1300
     36 H36       -12.4005    0.5902   55.1895 H       1  ZINC000467104849    0.0700
     37 H37       -13.4574   -0.2971   54.0651 H       1  ZINC000467104849    0.0700
     38 H38       -13.6904   -0.4607   55.8222 H       1  ZINC000467104849    0.0700
     39 H39       -10.2304   -2.1631   53.9704 H       1  ZINC000467104849    0.0700
     40 H40       -11.3167   -1.1018   53.0421 H       1  ZINC000467104849    0.0700
     41 H41       -10.2791   -0.4177   54.3163 H       1  ZINC000467104849    0.0700
     42 H42       -15.4691   -4.2164   54.9295 H       1  ZINC000467104849    0.0800
     43 H43       -13.9565   -4.9826   54.3792 H       1  ZINC000467104849    0.1100
     44 H44       -15.0986   -6.2096   56.2862 H       1  ZINC000467104849    0.1100
     45 H45       -13.4289   -5.7056   56.6461 H       1  ZINC000467104849    0.0600
     46 H46       -12.7301   -2.6086   60.0740 H       1  ZINC000467104849    0.1500
     47 H47       -13.6314   -1.4981   62.0781 H       1  ZINC000467104849    0.1500
     48 H48       -16.6606   -2.8571   58.4378 H       1  ZINC000467104849    0.1500
     49 H49       -13.3317   -1.7151   56.9339 H       1  ZINC000467104849    0.1100
     50 H50       -15.0535   -2.0522   56.6186 H       1  ZINC000467104849    0.0800
     51 H51       -11.2566   -3.7798   56.3343 H       1  ZINC000467104849    0.1400
     52 H52       -11.4313   -5.4177   57.5136 H       1  ZINC000467104849    0.0600
     53 H53        -9.7612   -5.2414   56.9237 H       1  ZINC000467104849    0.0600
     54 H54       -10.1039   -6.2791   58.3287 H       1  ZINC000467104849    0.1000
@<TRIPOS>BOND
     1     1     2    1
     2     1    31    1
     3     1    32    1
     4     1    33    1
     5     2     3    1
     6     3    28   ar
     7     3     4   ar
     8     4     5   ar
     9     4    34    1
    10     5     6   ar
    11     5    35    1
    12     6     7    1
    13     6    27   ar
    14     7     8    1
    15     7     9    1
    16     7    10    1
    17     8    36    1
    18     8    37    1
    19     8    38    1
    20     9    39    1
    21     9    40    1
    22     9    41    1
    23    10    11    2
    24    10    12   am
    25    12    26    1
    26    12    13    1
    27    13    14    1
    28    13    42    1
    29    13    43    1
    30    14    15    1
    31    14    44    1
    32    14    45    1
    33    15    16    1
    34    16    17    1
    35    16    18    1
    36    16    26    1
    37    18    25   ar
    38    18    19   ar
    39    19    20   ar
    40    19    46    1
    41    20    21   ar
    42    20    47    1
    43    21    22    1
    44    21    23   ar
    45    23    24    1
    46    23    25   ar
    47    25    48    1
    48    26    49    1
    49    26    50    1
    50    27    28   ar
    51    27    51    1
    52    28    29    1
    53    29    30    1
    54    30    52    1
    55    30    53    1
    56    30    54    1
@<TRIPOS>SUBSTRUCTURE
     1 ZINC000467104849        1 TEMP              0 ****  ****    0 ROOT


##########                                Name:    ZINC000277085192
##########                DOCK_Rotatable_Bonds:                   4
##########                         Heavy_Atoms:                  23
##########                    Molecular_Weight:             335.747
##########                DOCK_Rotatable_Bonds:                   4
##########                       Formal_Charge:         5.96046e-08
##########                     HBond_Acceptors:                   8
##########                        HBond_Donors:                   2
##########                         Heavy_Atoms:                  23
##########                          Grid_Score:          -30.618967
##########                     Grid_vdw_energy:          -30.426191
##########                      Grid_es_energy:           -0.192776
##########           Internal_energy_repulsive:            6.137116

@<TRIPOS>MOLECULE
ZINC000277085192
 37 39 1 0 0
SMALL
USER_CHARGES


@<TRIPOS>ATOM
      1 O1        -11.1641   -2.7333   55.0811 O.2     1  ZINC000277085192   -0.5000
      2 C2        -11.9511   -2.9716   54.1895 C.2     1  ZINC000277085192    0.5000
      3 C3        -13.0565   -3.9724   54.4077 C.3     1  ZINC000277085192    0.1100
      4 N4        -13.5937   -3.8191   55.7620 N.am    1  ZINC000277085192   -0.6000
      5 C5        -13.9110   -2.4815   56.2656 C.3     1  ZINC000277085192    0.1100
      6 C6        -15.1565   -2.5510   57.1522 C.3     1  ZINC000277085192   -0.1600
      7 C7        -15.0178   -3.7059   58.1120 C.2     1  ZINC000277085192    0.5200
      8 O8        -15.4787   -3.6238   59.2302 O.2     1  ZINC000277085192   -0.5000
      9 N9        -14.3826   -4.8277   57.7263 N.am    1  ZINC000277085192   -0.6700
     10 C10       -13.7932   -4.9081   56.5223 C.2     1  ZINC000277085192    0.7200
     11 O11       -13.4233   -5.9915   56.1140 O.2     1  ZINC000277085192   -0.5500
     12 N12       -11.8405   -2.3373   53.0055 N.am    1  ZINC000277085192   -0.6700
     13 C13       -10.8135   -1.4075   52.8027 C.ar    1  ZINC000277085192    0.1400
     14 C14        -9.5308   -1.8436   52.5270 C.ar    1  ZINC000277085192   -0.0400
     15 C15        -8.5008   -0.9120   52.3241 C.ar    1  ZINC000277085192   -0.1700
     16 C16        -8.7847    0.4518   52.4031 C.ar    1  ZINC000277085192   -0.0500
     17 C17       -10.0711    0.8757   52.6790 C.ar    1  ZINC000277085192   -0.0900
     18 C18       -11.0850   -0.0443   52.8732 C.ar    1  ZINC000277085192   -0.0300
     19 Cl19      -12.6962    0.5016   53.2190 Cl      1  ZINC000277085192   -0.0500
     20 C20        -7.5256    1.2462   52.1498 C.3     1  ZINC000277085192   -0.0800
     21 C21        -6.4114    0.2204   51.9011 C.3     1  ZINC000277085192   -0.1700
     22 C22        -7.0767   -1.1290   52.0219 C.2     1  ZINC000277085192    0.4100
     23 O23        -6.5326   -2.2050   51.8920 O.2     1  ZINC000277085192   -0.4300
     24 H24       -13.8503   -3.8014   53.6805 H       1  ZINC000277085192    0.1300
     25 H25       -12.6626   -4.9813   54.2851 H       1  ZINC000277085192    0.1200
     26 H26       -13.0709   -2.1041   56.8485 H       1  ZINC000277085192    0.0800
     27 H27       -14.0997   -1.8126   55.4259 H       1  ZINC000277085192    0.1000
     28 H28       -15.2568   -1.6216   57.7128 H       1  ZINC000277085192    0.1300
     29 H29       -16.0389   -2.6988   56.5296 H       1  ZINC000277085192    0.1200
     30 H30       -14.3534   -5.5902   58.3252 H       1  ZINC000277085192    0.4300
     31 H31       -12.4723   -2.5250   52.2939 H       1  ZINC000277085192    0.4200
     32 H32        -9.3213   -2.9014   52.4680 H       1  ZINC000277085192    0.1500
     33 H33       -10.2865    1.9323   52.7395 H       1  ZINC000277085192    0.1500
     34 H34        -7.6532    1.8804   51.2724 H       1  ZINC000277085192    0.1000
     35 H35        -7.2858    1.8557   53.0211 H       1  ZINC000277085192    0.1000
     36 H36        -5.9963    0.3487   50.9014 H       1  ZINC000277085192    0.1100
     37 H37        -5.6283    0.3240   52.6523 H       1  ZINC000277085192    0.1100
@<TRIPOS>BOND
     1     1     2    2
     2     2     3    1
     3     2    12   am
     4     3     4    1
     5     3    24    1
     6     3    25    1
     7     4    10   am
     8     4     5    1
     9     5     6    1
    10     5    26    1
    11     5    27    1
    12     6     7    1
    13     6    28    1
    14     6    29    1
    15     7     8    2
    16     7     9   am
    17     9    10   am
    18     9    30    1
    19    10    11    2
    20    12    13    1
    21    12    31    1
    22    13    18   ar
    23    13    14   ar
    24    14    15   ar
    25    14    32    1
    26    15    22    1
    27    15    16   ar
    28    16    17   ar
    29    16    20    1
    30    17    18   ar
    31    17    33    1
    32    18    19    1
    33    20    21    1
    34    20    34    1
    35    20    35    1
    36    21    22    1
    37    21    36    1
    38    21    37    1
    39    22    23    2
@<TRIPOS>SUBSTRUCTURE
     1 ZINC000277085192        1 TEMP              0 ****  ****    0 ROOT


##########                                Name:    ZINC000451019064
##########                DOCK_Rotatable_Bonds:                   8
##########                         Heavy_Atoms:                  23
##########                    Molecular_Weight:             346.534
##########                DOCK_Rotatable_Bonds:                   8
##########                       Formal_Charge:          -0.0200008
##########                     HBond_Acceptors:                   6
##########                        HBond_Donors:                   1
##########                         Heavy_Atoms:                  23
##########                          Grid_Score:          -30.602108
##########                     Grid_vdw_energy:          -28.880402
##########                      Grid_es_energy:           -1.721707
##########           Internal_energy_repulsive:            7.017138

@<TRIPOS>MOLECULE
ZINC000451019064
 57 58 1 0 0
SMALL
USER_CHARGES


@<TRIPOS>ATOM
      1 C1          2.1652    0.2038   46.6417 C.3     1  ZINC000451019064   -0.1500
      2 C2          1.5461    1.4396   47.2980 C.3     1  ZINC000451019064    0.0900
      3 H3          2.1998    1.7944   48.0948 H       1  ZINC000451019064    0.0700
      4 C4          0.1782    1.0769   47.8821 C.3     1  ZINC000451019064    0.0200
      5 N5         -0.4451    2.2845   48.4429 N.3     1  ZINC000451019064   -0.5400
      6 C6         -1.7377    1.9691   49.0655 C.3     1  ZINC000451019064    0.0600
      7 C7         -1.5395    1.7440   50.5659 C.3     1  ZINC000451019064   -0.1300
      8 C8         -1.8543    3.0367   51.3215 C.3     1  ZINC000451019064    0.1100
      9 N9         -1.8284    2.7782   52.7632 N.am    1  ZINC000451019064   -1.1200
     10 S10        -2.8887    3.5632   53.7643 S.o2    1  ZINC000451019064    2.6100
     11 O11        -2.5303    4.9335   53.6491 O.2     1  ZINC000451019064   -0.9600
     12 O12        -4.1677    3.1031   53.3502 O.2     1  ZINC000451019064   -0.9500
     13 C13        -2.4934    2.9391   55.4211 C.3     1  ZINC000451019064   -0.6300
     14 C14        -1.1296    3.4783   55.8573 C.3     1  ZINC000451019064   -0.1100
     15 C15        -0.9417    3.2374   57.3565 C.3     1  ZINC000451019064   -0.0800
     16 C16        -1.1266    1.7495   57.6610 C.3     1  ZINC000451019064   -0.1200
     17 C17        -0.9387    1.5085   59.1603 C.3     1  ZINC000451019064   -0.1200
     18 C18         0.4688    1.9427   59.5740 C.3     1  ZINC000451019064   -0.1200
     19 C19         0.6538    3.4307   59.2695 C.3     1  ZINC000451019064   -0.1200
     20 C20         0.4658    3.6716   57.7702 C.3     1  ZINC000451019064   -0.1200
     21 C21        -0.5965    3.3201   47.4103 C.3     1  ZINC000451019064    0.0200
     22 C22         0.7792    3.6601   46.8308 C.3     1  ZINC000451019064    0.0900
     23 H23         1.4103    4.0803   47.6139 H       1  ZINC000451019064    0.0700
     24 C24         0.6199    4.6796   45.7011 C.3     1  ZINC000451019064   -0.1500
     25 O25         1.3839    2.4694   46.3190 O.3     1  ZINC000451019064   -0.3800
     26 H26         3.1383    0.4629   46.2246 H       1  ZINC000451019064    0.0700
     27 H27         2.2871   -0.5812   47.3880 H       1  ZINC000451019064    0.0700
     28 H28         1.5112   -0.1507   45.8450 H       1  ZINC000451019064    0.0600
     29 H29        -0.4576    0.6710   47.0953 H       1  ZINC000451019064    0.0400
     30 H30         0.3041    0.3334   48.6692 H       1  ZINC000451019064    0.0900
     31 H31        -2.4276    2.7986   48.9106 H       1  ZINC000451019064    0.0400
     32 H32        -2.1479    1.0659   48.6138 H       1  ZINC000451019064    0.0800
     33 H33        -2.2074    0.9526   50.9059 H       1  ZINC000451019064    0.0800
     34 H34        -0.5061    1.4542   50.7565 H       1  ZINC000451019064    0.0800
     35 H35        -1.1088    3.7926   51.0744 H       1  ZINC000451019064    0.0800
     36 H36        -2.8431    3.3939   51.0340 H       1  ZINC000451019064    0.0700
     37 H37        -1.1904    2.1472   53.1316 H       1  ZINC000451019064    0.4200
     38 H38        -3.2569    3.2694   56.1255 H       1  ZINC000451019064    0.1300
     39 H39        -2.4641    1.8497   55.4016 H       1  ZINC000451019064    0.1400
     40 H40        -0.3425    2.9648   55.3053 H       1  ZINC000451019064    0.0800
     41 H41        -1.0791    4.5476   55.6520 H       1  ZINC000451019064    0.0800
     42 H42        -1.6788    3.8164   57.9127 H       1  ZINC000451019064    0.0800
     43 H43        -2.1294    1.4402   57.3663 H       1  ZINC000451019064    0.0600
     44 H44        -0.3896    1.1704   57.1047 H       1  ZINC000451019064    0.0700
     45 H45        -1.6758    2.0876   59.7164 H       1  ZINC000451019064    0.0600
     46 H46        -1.0704    0.4485   59.3772 H       1  ZINC000451019064    0.0600
     47 H47         0.6028    1.7711   60.6421 H       1  ZINC000451019064    0.0600
     48 H48         1.2059    1.3637   59.0177 H       1  ZINC000451019064    0.0600
     49 H49        -0.0833    4.0098   59.8257 H       1  ZINC000451019064    0.0600
     50 H50         1.6566    3.7400   59.5643 H       1  ZINC000451019064    0.0600
     51 H51         1.2029    3.0925   57.2140 H       1  ZINC000451019064    0.0700
     52 H52         0.5976    4.7316   57.5533 H       1  ZINC000451019064    0.0600
     53 H53        -1.2445    2.9499   46.6159 H       1  ZINC000451019064    0.0400
     54 H54        -1.0360    4.2139   47.8529 H       1  ZINC000451019064    0.0900
     55 H55         0.1565    5.5855   46.0919 H       1  ZINC000451019064    0.0700
     56 H56         1.5996    4.9213   45.2890 H       1  ZINC000451019064    0.0700
     57 H57        -0.0099    4.2582   44.9176 H       1  ZINC000451019064    0.0600
@<TRIPOS>BOND
     1     1     2    1
     2     1    26    1
     3     1    27    1
     4     1    28    1
     5     2     3    1
     6     2    25    1
     7     2     4    1
     8     4     5    1
     9     4    29    1
    10     4    30    1
    11     5     6    1
    12     5    21    1
    13     6     7    1
    14     6    31    1
    15     6    32    1
    16     7     8    1
    17     7    33    1
    18     7    34    1
    19     8     9    1
    20     8    35    1
    21     8    36    1
    22     9    10   am
    23     9    37    1
    24    10    11    2
    25    10    12    2
    26    10    13    1
    27    13    14    1
    28    13    38    1
    29    13    39    1
    30    14    15    1
    31    14    40    1
    32    14    41    1
    33    15    20    1
    34    15    16    1
    35    15    42    1
    36    16    17    1
    37    16    43    1
    38    16    44    1
    39    17    18    1
    40    17    45    1
    41    17    46    1
    42    18    19    1
    43    18    47    1
    44    18    48    1
    45    19    20    1
    46    19    49    1
    47    19    50    1
    48    20    51    1
    49    20    52    1
    50    21    22    1
    51    21    53    1
    52    21    54    1
    53    22    23    1
    54    22    24    1
    55    22    25    1
    56    24    55    1
    57    24    56    1
    58    24    57    1
@<TRIPOS>SUBSTRUCTURE
     1 ZINC000451019064        1 TEMP              0 ****  ****    0 ROOT


##########                                Name:    ZINC000866034032
##########                DOCK_Rotatable_Bonds:                   4
##########                         Heavy_Atoms:                  23
##########                    Molecular_Weight:             383.242
##########                DOCK_Rotatable_Bonds:                   4
##########                       Formal_Charge:           0.0199999
##########                     HBond_Acceptors:                   6
##########                        HBond_Donors:                   1
##########                         Heavy_Atoms:                  23
##########                          Grid_Score:          -30.587076
##########                     Grid_vdw_energy:          -30.794720
##########                      Grid_es_energy:            0.207643
##########           Internal_energy_repulsive:           13.499963

@<TRIPOS>MOLECULE
ZINC000866034032
 42 44 1 0 0
SMALL
USER_CHARGES


@<TRIPOS>ATOM
      1 C1        -11.1852   -4.4978   57.0502 C.3     1  ZINC000866034032   -0.1300
      2 C2        -11.8513   -3.3664   56.2646 C.3     1  ZINC000866034032   -0.0800
      3 C3        -11.1078   -2.0357   56.3964 C.3     1  ZINC000866034032   -0.1300
      4 C4        -12.1873   -3.7424   54.8131 C.3     1  ZINC000866034032    0.1400
      5 H5        -11.5640   -4.5434   54.4156 H       1  ZINC000866034032    0.1100
      6 N6        -12.2702   -2.5885   53.9143 N.am    1  ZINC000866034032   -0.7000
      7 C7        -11.9218   -2.7172   52.6187 C.2     1  ZINC000866034032    0.5100
      8 O8        -11.5382   -3.7878   52.1974 O.2     1  ZINC000866034032   -0.5300
      9 C9        -12.0087   -1.5307   51.6936 C.3     1  ZINC000866034032   -0.1100
     10 C10       -10.8073   -0.6444   51.8990 C.ar    1  ZINC000866034032   -0.0500
     11 C11       -10.9681    0.7247   52.0000 C.ar    1  ZINC000866034032   -0.0500
     12 C12        -9.8663    1.5382   52.1880 C.ar    1  ZINC000866034032   -0.0900
     13 C13        -8.6031    0.9819   52.2755 C.ar    1  ZINC000866034032   -0.0500
     14 Br14       -7.0957    2.0941   52.5332 Br      1  ZINC000866034032    0.0200
     15 C15        -8.4428   -0.3885   52.1747 C.ar    1  ZINC000866034032   -0.0200
     16 N16        -7.0912   -0.9844   52.2686 N.pl3   1  ZINC000866034032    0.0200
     17 O17        -6.9502   -2.1910   52.1800 O.2     1  ZINC000866034032   -0.1600
     18 O18        -6.1201   -0.2683   52.4347 O.2     1  ZINC000866034032   -0.1300
     19 C19        -9.5453   -1.2014   51.9920 C.ar    1  ZINC000866034032   -0.0300
     20 C20       -13.5550   -4.2245   55.3235 C.3     1  ZINC000866034032   -0.1500
     21 H21       -13.6376   -5.2857   55.5580 H       1  ZINC000866034032    0.1200
     22 C22       -14.7369   -3.6298   54.5258 C.3     1  ZINC000866034032   -0.1400
     23 C23       -15.1302   -2.3652   55.3205 C.3     1  ZINC000866034032    0.0500
     24 O24       -13.9353   -1.9970   56.0429 O.3     1  ZINC000866034032   -0.3600
     25 C25       -13.3622   -3.2524   56.5155 C.3     1  ZINC000866034032    0.0600
     26 H26       -13.7253   -3.5854   57.4878 H       1  ZINC000866034032    0.1000
     27 H27       -11.8331   -5.3744   57.0449 H       1  ZINC000866034032    0.0600
     28 H28       -10.2308   -4.7486   56.5874 H       1  ZINC000866034032    0.0700
     29 H29       -11.0172   -4.1764   58.0782 H       1  ZINC000866034032    0.0700
     30 H30       -10.1564   -2.0972   55.8681 H       1  ZINC000866034032    0.0600
     31 H31       -11.7121   -1.2376   55.9649 H       1  ZINC000866034032    0.0600
     32 H32       -10.9254   -1.8242   57.4500 H       1  ZINC000866034032    0.0600
     33 H33       -12.5758   -1.7319   54.2515 H       1  ZINC000866034032    0.4100
     34 H34       -12.0324   -1.8767   50.6602 H       1  ZINC000866034032    0.1100
     35 H35       -12.9168   -0.9677   51.9091 H       1  ZINC000866034032    0.1200
     36 H36       -11.9546    1.1590   51.9317 H       1  ZINC000866034032    0.1500
     37 H37        -9.9919    2.6080   52.2662 H       1  ZINC000866034032    0.1600
     38 H38        -9.4203   -2.2713   51.9138 H       1  ZINC000866034032    0.1600
     39 H39       -14.4212   -3.3639   53.5170 H       1  ZINC000866034032    0.0800
     40 H40       -15.5683   -4.3341   54.4932 H       1  ZINC000866034032    0.0800
     41 H41       -15.4239   -1.5657   54.6405 H       1  ZINC000866034032    0.0900
     42 H42       -15.9395   -2.5901   56.0153 H       1  ZINC000866034032    0.0600
@<TRIPOS>BOND
     1     1     2    1
     2     1    27    1
     3     1    28    1
     4     1    29    1
     5     2    25    1
     6     2     3    1
     7     2     4    1
     8     3    30    1
     9     3    31    1
    10     3    32    1
    11     4     5    1
    12     4     6    1
    13     4    20    1
    14     6     7   am
    15     6    33    1
    16     7     8    2
    17     7     9    1
    18     9    10    1
    19     9    34    1
    20     9    35    1
    21    10    19   ar
    22    10    11   ar
    23    11    12   ar
    24    11    36    1
    25    12    13   ar
    26    12    37    1
    27    13    14    1
    28    13    15   ar
    29    15    16    1
    30    15    19   ar
    31    16    17    2
    32    16    18    2
    33    19    38    1
    34    20    21    1
    35    20    25    1
    36    20    22    1
    37    22    23    1
    38    22    39    1
    39    22    40    1
    40    23    24    1
    41    23    41    1
    42    23    42    1
    43    24    25    1
    44    25    26    1
@<TRIPOS>SUBSTRUCTURE
     1 ZINC000866034032        1 TEMP              0 ****  ****    0 ROOT


##########                                Name:    ZINC000182378855
##########                DOCK_Rotatable_Bonds:                   8
##########                         Heavy_Atoms:                  27
##########                    Molecular_Weight:              394.83
##########                DOCK_Rotatable_Bonds:                   8
##########                       Formal_Charge:          -0.0200001
##########                     HBond_Acceptors:                   8
##########                        HBond_Donors:                   1
##########                         Heavy_Atoms:                  27
##########                          Grid_Score:          -30.561283
##########                     Grid_vdw_energy:          -31.017937
##########                      Grid_es_energy:            0.456653
##########           Internal_energy_repulsive:            8.692870

@<TRIPOS>MOLECULE
ZINC000182378855
 47 49 1 0 0
SMALL
USER_CHARGES


@<TRIPOS>ATOM
      1 C1         -2.9224    1.9974   51.3326 C.3     1  ZINC000182378855    0.0300
      2 O2         -4.1832    2.0547   52.0028 O.3     1  ZINC000182378855   -0.3900
      3 C3         -5.0532    0.9625   51.6990 C.3     1  ZINC000182378855    0.0600
      4 C4         -6.3652    1.1262   52.4687 C.3     1  ZINC000182378855    0.0700
      5 O5         -7.2085    0.0001   52.2177 O.3     1  ZINC000182378855   -0.2900
      6 C6         -8.3688   -0.0689   52.9177 C.ar    1  ZINC000182378855    0.3300
      7 C7         -9.2902   -1.0647   52.6225 C.ar    1  ZINC000182378855   -0.1300
      8 C8        -10.4795   -1.1226   53.3514 C.ar    1  ZINC000182378855   -0.0600
      9 C9        -11.4925   -2.1673   53.0728 C.2     1  ZINC000182378855    0.5600
     10 O10       -11.3918   -2.8620   52.0810 O.2     1  ZINC000182378855   -0.5200
     11 N11       -12.5255   -2.3472   53.9194 N.am    1  ZINC000182378855   -0.7100
     12 C12       -13.5281   -3.3790   53.6430 C.3     1  ZINC000182378855    0.1200
     13 H13       -13.0674   -4.2359   53.1516 H       1  ZINC000182378855    0.1100
     14 C14       -14.6696   -2.8057   52.7737 C.3     1  ZINC000182378855   -0.1700
     15 C15       -15.9280   -2.9615   53.6561 C.3     1  ZINC000182378855    0.0400
     16 O16       -15.4264   -3.0039   55.0098 O.3     1  ZINC000182378855   -0.3600
     17 C17       -14.2318   -3.8133   54.9478 C.3     1  ZINC000182378855    0.1100
     18 H18       -14.4919   -4.8710   54.9047 H       1  ZINC000182378855    0.1000
     19 C19       -13.3486   -3.5370   56.1372 C.ar    1  ZINC000182378855   -0.0500
     20 C20       -13.4371   -2.3254   56.7965 C.ar    1  ZINC000182378855   -0.1100
     21 C21       -12.6315   -2.0723   57.8913 C.ar    1  ZINC000182378855   -0.0800
     22 C22       -11.7284   -3.0272   58.3211 C.ar    1  ZINC000182378855   -0.0700
     23 Cl23      -10.7123   -2.7072   59.6917 Cl      1  ZINC000182378855   -0.0400
     24 C24       -11.6354   -4.2401   57.6570 C.ar    1  ZINC000182378855    0.1200
     25 F25       -10.7539   -5.1743   58.0757 F       1  ZINC000182378855   -0.1200
     26 C26       -12.4466   -4.4935   56.5646 C.ar    1  ZINC000182378855   -0.1300
     27 C27       -10.6890   -0.1676   54.3526 C.ar    1  ZINC000182378855   -0.1900
     28 C28        -9.7209    0.7890   54.5817 C.ar    1  ZINC000182378855    0.1400
     29 N29        -8.6067    0.8096   53.8765 N.ar    1  ZINC000182378855   -0.5200
     30 H30        -3.0834    2.0046   50.2546 H       1  ZINC000182378855    0.0400
     31 H31        -2.3208    2.8610   51.6159 H       1  ZINC000182378855    0.0900
     32 H32        -2.4015    1.0829   51.6161 H       1  ZINC000182378855    0.0400
     33 H33        -5.2591    0.9488   50.6287 H       1  ZINC000182378855    0.0600
     34 H34        -4.5760    0.0264   51.9892 H       1  ZINC000182378855    0.0700
     35 H35        -6.1547    1.1916   53.5362 H       1  ZINC000182378855    0.0800
     36 H36        -6.8677    2.0363   52.1410 H       1  ZINC000182378855    0.0800
     37 H37        -9.0903   -1.7829   51.8411 H       1  ZINC000182378855    0.1600
     38 H38       -12.6053   -1.7933   54.7118 H       1  ZINC000182378855    0.4000
     39 H39       -14.4880   -1.7545   52.5496 H       1  ZINC000182378855    0.0900
     40 H40       -14.7748   -3.3807   51.8537 H       1  ZINC000182378855    0.0900
     41 H41       -16.5920   -2.1073   53.5242 H       1  ZINC000182378855    0.1000
     42 H42       -16.4492   -3.8875   53.4136 H       1  ZINC000182378855    0.0700
     43 H43       -14.1388   -1.5773   56.4584 H       1  ZINC000182378855    0.1500
     44 H44       -12.7046   -1.1270   58.4083 H       1  ZINC000182378855    0.1500
     45 H45       -12.3753   -5.4385   56.0465 H       1  ZINC000182378855    0.1500
     46 H46       -11.5962   -0.1793   54.9385 H       1  ZINC000182378855    0.1400
     47 H47        -9.8762    1.5290   55.3529 H       1  ZINC000182378855    0.1700
@<TRIPOS>BOND
     1     1     2    1
     2     1    30    1
     3     1    31    1
     4     1    32    1
     5     2     3    1
     6     3     4    1
     7     3    33    1
     8     3    34    1
     9     4     5    1
    10     4    35    1
    11     4    36    1
    12     5     6    1
    13     6    29   ar
    14     6     7   ar
    15     7     8   ar
    16     7    37    1
    17     8     9    1
    18     8    27   ar
    19     9    10    2
    20     9    11   am
    21    11    12    1
    22    11    38    1
    23    12    13    1
    24    12    17    1
    25    12    14    1
    26    14    15    1
    27    14    39    1
    28    14    40    1
    29    15    16    1
    30    15    41    1
    31    15    42    1
    32    16    17    1
    33    17    18    1
    34    17    19    1
    35    19    26   ar
    36    19    20   ar
    37    20    21   ar
    38    20    43    1
    39    21    22   ar
    40    21    44    1
    41    22    23    1
    42    22    24   ar
    43    24    25    1
    44    24    26   ar
    45    26    45    1
    46    27    28   ar
    47    27    46    1
    48    28    29   ar
    49    28    47    1
@<TRIPOS>SUBSTRUCTURE
     1 ZINC000182378855        1 TEMP              0 ****  ****    0 ROOT


##########                                Name:    ZINC000543625960
##########                DOCK_Rotatable_Bonds:                   8
##########                         Heavy_Atoms:                  29
##########                    Molecular_Weight:             416.544
##########                DOCK_Rotatable_Bonds:                   8
##########                       Formal_Charge:           -0.010001
##########                     HBond_Acceptors:                   8
##########                        HBond_Donors:                   2
##########                         Heavy_Atoms:                  29
##########                          Grid_Score:          -30.560295
##########                     Grid_vdw_energy:          -30.738028
##########                      Grid_es_energy:            0.177733
##########           Internal_energy_repulsive:           11.932730

@<TRIPOS>MOLECULE
ZINC000543625960
 57 59 1 0 0
SMALL
USER_CHARGES


@<TRIPOS>ATOM
      1 C1        -15.8496   -2.7037   53.0138 C.3     1  ZINC000543625960   -0.1500
      2 C2        -15.1969   -1.4927   52.3444 C.3     1  ZINC000543625960   -0.1300
      3 C3        -13.7073   -1.4589   52.6924 C.3     1  ZINC000543625960    0.1500
      4 H4        -13.5884   -1.3398   53.7694 H       1  ZINC000543625960    0.0800
      5 C5        -13.0420   -0.2839   51.9729 C.3     1  ZINC000543625960   -0.1700
      6 N6        -13.0779   -2.7115   52.2672 N.am    1  ZINC000543625960   -1.1100
      7 S7        -11.8806   -3.3907   53.1877 S.o2    1  ZINC000543625960    2.7000
      8 O8        -11.5892   -4.6514   52.6003 O.2     1  ZINC000543625960   -0.9600
      9 O9        -10.9017   -2.3793   53.3826 O.2     1  ZINC000543625960   -0.9500
     10 C10       -12.5700   -3.7282   54.7737 C.ar    1  ZINC000543625960   -0.6600
     11 C11       -13.3452   -4.8572   54.9637 C.ar    1  ZINC000543625960   -0.0400
     12 C12       -13.8883   -5.1256   56.2070 C.ar    1  ZINC000543625960   -0.1200
     13 C13       -13.6576   -4.2661   57.2629 C.ar    1  ZINC000543625960   -0.0600
     14 C14       -12.8790   -3.1314   57.0755 C.ar    1  ZINC000543625960    0.1500
     15 N15       -12.6433   -2.2584   58.1436 N.am    1  ZINC000543625960   -0.6800
     16 C16       -11.5556   -2.4240   58.9219 C.2     1  ZINC000543625960    0.7200
     17 O17       -10.7790   -3.3319   58.6961 O.2     1  ZINC000543625960   -0.5600
     18 N18       -11.3285   -1.5833   59.9506 N.am    1  ZINC000543625960   -0.6300
     19 C19       -10.1837   -1.6490   60.8772 C.3     1  ZINC000543625960    0.0900
     20 C20       -10.0319   -0.2071   61.4227 C.3     1  ZINC000543625960   -0.1000
     21 H21        -9.5426   -0.2074   62.3967 H       1  ZINC000543625960    0.1000
     22 C22        -9.2730    0.6773   60.4313 C.3     1  ZINC000543625960   -0.1500
     23 C23       -11.5134    0.2374   61.5447 C.3     1  ZINC000543625960   -0.1200
     24 C24       -12.1779   -0.4451   60.3306 C.3     1  ZINC000543625960    0.2000
     25 H25       -12.2523    0.2608   59.5033 H       1  ZINC000543625960    0.0900
     26 C26       -13.5509   -0.9385   60.7079 C.ar    1  ZINC000543625960   -0.1400
     27 C27       -14.6826   -0.2686   60.2696 C.ar    1  ZINC000543625960   -0.0600
     28 C28       -15.9253   -0.7591   60.6411 C.ar    1  ZINC000543625960   -0.1700
     29 C29       -15.9940   -1.8912   61.4303 C.ar    1  ZINC000543625960    0.1000
     30 N30       -14.8958   -2.5031   61.8291 N.ar    1  ZINC000543625960   -0.4800
     31 C31       -13.6979   -2.0682   61.4908 C.ar    1  ZINC000543625960    0.1200
     32 C32       -12.3310   -2.8675   55.8274 C.ar    1  ZINC000543625960   -0.0500
     33 H33       -16.9108   -2.7277   52.7659 H       1  ZINC000543625960    0.0600
     34 H34       -15.3725   -3.6168   52.6578 H       1  ZINC000543625960    0.0600
     35 H35       -15.7307   -2.6293   54.0948 H       1  ZINC000543625960    0.0500
     36 H36       -15.3158   -1.5670   51.2634 H       1  ZINC000543625960    0.0700
     37 H37       -15.6740   -0.5796   52.7004 H       1  ZINC000543625960    0.0800
     38 H38       -13.5103    0.6481   52.2893 H       1  ZINC000543625960    0.0700
     39 H39       -11.9809   -0.2598   52.2209 H       1  ZINC000543625960    0.0700
     40 H40       -13.1609   -0.4030   50.8960 H       1  ZINC000543625960    0.0600
     41 H41       -13.3625   -3.1431   51.4464 H       1  ZINC000543625960    0.4200
     42 H42       -13.5274   -5.5307   54.1394 H       1  ZINC000543625960    0.1400
     43 H43       -14.4936   -6.0081   56.3521 H       1  ZINC000543625960    0.1400
     44 H44       -14.0824   -4.4758   58.2335 H       1  ZINC000543625960    0.1400
     45 H45       -13.2627   -1.5340   58.3237 H       1  ZINC000543625960    0.4100
     46 H46       -10.3940   -2.3424   61.6914 H       1  ZINC000543625960    0.0700
     47 H47        -9.2815   -1.9500   60.3447 H       1  ZINC000543625960    0.0800
     48 H48        -9.8045    0.6953   59.4798 H       1  ZINC000543625960    0.0600
     49 H49        -9.2031    1.6903   60.8278 H       1  ZINC000543625960    0.0600
     50 H50        -8.2707    0.2764   60.2802 H       1  ZINC000543625960    0.0600
     51 H51       -11.9478   -0.1203   62.4782 H       1  ZINC000543625960    0.0800
     52 H52       -11.5983    1.3215   61.4690 H       1  ZINC000543625960    0.0900
     53 H53       -14.5985    0.6146   59.6537 H       1  ZINC000543625960    0.1300
     54 H54       -16.8282   -0.2622   60.3181 H       1  ZINC000543625960    0.1400
     55 H55       -16.9580   -2.2794   61.7242 H       1  ZINC000543625960    0.1600
     56 H56       -12.8212   -2.5958   61.8366 H       1  ZINC000543625960    0.1400
     57 H57       -11.7250   -1.9859   55.6784 H       1  ZINC000543625960    0.1400
@<TRIPOS>BOND
     1     1     2    1
     2     1    33    1
     3     1    34    1
     4     1    35    1
     5     2     3    1
     6     2    36    1
     7     2    37    1
     8     3     4    1
     9     3     5    1
    10     3     6    1
    11     5    38    1
    12     5    39    1
    13     5    40    1
    14     6     7   am
    15     6    41    1
    16     7     8    2
    17     7     9    2
    18     7    10    1
    19    10    32   ar
    20    10    11   ar
    21    11    12   ar
    22    11    42    1
    23    12    13   ar
    24    12    43    1
    25    13    14   ar
    26    13    44    1
    27    14    15    1
    28    14    32   ar
    29    15    16   am
    30    15    45    1
    31    16    17    2
    32    16    18   am
    33    18    24    1
    34    18    19    1
    35    19    20    1
    36    19    46    1
    37    19    47    1
    38    20    21    1
    39    20    22    1
    40    20    23    1
    41    22    48    1
    42    22    49    1
    43    22    50    1
    44    23    24    1
    45    23    51    1
    46    23    52    1
    47    24    25    1
    48    24    26    1
    49    26    31   ar
    50    26    27   ar
    51    27    28   ar
    52    27    53    1
    53    28    29   ar
    54    28    54    1
    55    29    30   ar
    56    29    55    1
    57    30    31   ar
    58    31    56    1
    59    32    57    1
@<TRIPOS>SUBSTRUCTURE
     1 ZINC000543625960        1 TEMP              0 ****  ****    0 ROOT


##########                                Name:    ZINC000281092425
##########                DOCK_Rotatable_Bonds:                   8
##########                         Heavy_Atoms:                  23
##########                    Molecular_Weight:             332.304
##########                DOCK_Rotatable_Bonds:                   8
##########                       Formal_Charge:         2.98023e-08
##########                     HBond_Acceptors:                   9
##########                        HBond_Donors:                   2
##########                         Heavy_Atoms:                  23
##########                          Grid_Score:          -30.524664
##########                     Grid_vdw_energy:          -29.473202
##########                      Grid_es_energy:           -1.051463
##########           Internal_energy_repulsive:           18.450308

@<TRIPOS>MOLECULE
ZINC000281092425
 41 42 1 0 0
SMALL
USER_CHARGES


@<TRIPOS>ATOM
      1 O1         -3.9898    0.9945   51.3283 O.2     1  ZINC000281092425   -0.1800
      2 N2         -4.8376    1.5578   51.9972 N.pl3   1  ZINC000281092425    0.0400
      3 O3         -4.6396    2.6882   52.4052 O.2     1  ZINC000281092425   -0.1500
      4 C4         -6.1110    0.8710   52.3092 C.ar    1  ZINC000281092425   -0.1200
      5 C5         -6.3347   -0.4114   51.8459 C.ar    1  ZINC000281092425    0.0200
      6 C6         -7.5221   -1.0559   52.1350 C.ar    1  ZINC000281092425   -0.2200
      7 C7         -8.4943   -0.4155   52.8932 C.ar    1  ZINC000281092425    0.3000
      8 N8         -9.6945   -1.0669   53.1859 N.pl3   1  ZINC000281092425   -0.7200
      9 C9        -10.4636   -1.7024   52.1131 C.3     1  ZINC000281092425    0.1200
     10 C10       -11.9583   -1.5825   52.4170 C.3     1  ZINC000281092425   -0.0900
     11 H11       -12.1118   -0.8357   53.1959 H       1  ZINC000281092425    0.0900
     12 C12       -12.7040   -1.1589   51.1500 C.3     1  ZINC000281092425    0.0800
     13 O13       -14.0867   -0.9643   51.4537 O.3     1  ZINC000281092425   -0.5700
     14 C14       -12.4917   -2.9346   52.8948 C.3     1  ZINC000281092425   -0.1100
     15 H15       -12.6381   -3.6114   52.0529 H       1  ZINC000281092425    0.0900
     16 C16       -11.5405   -3.5626   53.9497 C.3     1  ZINC000281092425   -0.1600
     17 C17       -12.5356   -4.4243   54.7670 C.3     1  ZINC000281092425    0.0500
     18 O18       -13.7488   -3.6565   54.8104 O.3     1  ZINC000281092425   -0.3900
     19 C19       -13.8018   -2.7577   53.6919 C.3     1  ZINC000281092425    0.0700
     20 C20        -8.2709    0.8729   53.3597 C.ar    1  ZINC000281092425   -0.2800
     21 C21        -7.0766    1.5139   53.0716 C.ar    1  ZINC000281092425    0.2300
     22 O22        -6.8546    2.7749   53.5272 O.3     1  ZINC000281092425   -0.2900
     23 C23        -6.6644    2.9320   54.9347 C.3     1  ZINC000281092425    0.4100
     24 F24        -6.0170    4.1468   55.1850 F       1  ZINC000281092425   -0.1900
     25 F25        -7.9073    2.9250   55.5769 F       1  ZINC000281092425   -0.1900
     26 H26        -5.5800   -0.9108   51.2565 H       1  ZINC000281092425    0.1600
     27 H27        -7.6947   -2.0580   51.7712 H       1  ZINC000281092425    0.1500
     28 H28       -10.0190   -1.0986   54.0994 H       1  ZINC000281092425    0.4100
     29 H29       -10.2444   -1.2078   51.1668 H       1  ZINC000281092425    0.0800
     30 H30       -10.1900   -2.7553   52.0446 H       1  ZINC000281092425    0.0800
     31 H31       -12.2802   -0.2280   50.7731 H       1  ZINC000281092425    0.0500
     32 H32       -12.6042   -1.9364   50.3926 H       1  ZINC000281092425    0.0500
     33 H33       -14.2674   -0.1675   51.9710 H       1  ZINC000281092425    0.3800
     34 H34       -10.7815   -4.1837   53.4740 H       1  ZINC000281092425    0.0800
     35 H35       -11.0827   -2.7942   54.5727 H       1  ZINC000281092425    0.0800
     36 H36       -12.7090   -5.3777   54.2678 H       1  ZINC000281092425    0.0600
     37 H37       -12.1550   -4.5880   55.7751 H       1  ZINC000281092425    0.0900
     38 H38       -13.8799   -1.7301   54.0467 H       1  ZINC000281092425    0.0800
     39 H39       -14.6592   -2.9994   53.0637 H       1  ZINC000281092425    0.0700
     40 H40        -9.0249    1.3731   53.9493 H       1  ZINC000281092425    0.1500
     41 H41        -6.0553    2.1110   55.3129 H       1  ZINC000281092425    0.1900
@<TRIPOS>BOND
     1     1     2    2
     2     2     3    2
     3     2     4    1
     4     4    21   ar
     5     4     5   ar
     6     5     6   ar
     7     5    26    1
     8     6     7   ar
     9     6    27    1
    10     7     8    1
    11     7    20   ar
    12     8     9    1
    13     8    28    1
    14     9    10    1
    15     9    29    1
    16     9    30    1
    17    10    11    1
    18    10    12    1
    19    10    14    1
    20    12    13    1
    21    12    31    1
    22    12    32    1
    23    13    33    1
    24    14    15    1
    25    14    19    1
    26    14    16    1
    27    16    17    1
    28    16    34    1
    29    16    35    1
    30    17    18    1
    31    17    36    1
    32    17    37    1
    33    18    19    1
    34    19    38    1
    35    19    39    1
    36    20    21   ar
    37    20    40    1
    38    21    22    1
    39    22    23    1
    40    23    24    1
    41    23    25    1
    42    23    41    1
@<TRIPOS>SUBSTRUCTURE
     1 ZINC000281092425        1 TEMP              0 ****  ****    0 ROOT


##########                                Name:    ZINC001060733018
##########                DOCK_Rotatable_Bonds:                   7
##########                         Heavy_Atoms:                  24
##########                    Molecular_Weight:             342.429
##########                DOCK_Rotatable_Bonds:                   7
##########                       Formal_Charge:           0.0200001
##########                     HBond_Acceptors:                   6
##########                        HBond_Donors:                   2
##########                         Heavy_Atoms:                  24
##########                          Grid_Score:          -30.519268
##########                     Grid_vdw_energy:          -26.527233
##########                      Grid_es_energy:           -3.992034
##########           Internal_energy_repulsive:            9.986454

@<TRIPOS>MOLECULE
ZINC001060733018
 52 54 1 0 0
SMALL
USER_CHARGES


@<TRIPOS>ATOM
      1 O1         -6.4843    4.6024   54.3839 O.2     1  ZINC001060733018   -0.5000
      2 C2         -6.2920    3.6314   55.0846 C.2     1  ZINC001060733018    0.4700
      3 N3         -5.0342    3.2773   55.4151 N.am    1  ZINC001060733018   -0.7100
      4 C4         -3.8992    4.0629   54.9245 C.3     1  ZINC001060733018    0.1200
      5 C5         -3.1920    3.2940   53.8067 C.3     1  ZINC001060733018   -0.1000
      6 H6         -2.7468    2.3867   54.2152 H       1  ZINC001060733018    0.0800
      7 C7         -4.2060    2.9215   52.7232 C.3     1  ZINC001060733018   -0.1100
      8 C8         -3.4987    2.1525   51.6055 C.3     1  ZINC001060733018   -0.1300
      9 C9         -2.4022    3.0297   50.9978 C.3     1  ZINC001060733018    0.1400
     10 H10        -2.8474    3.9370   50.5894 H       1  ZINC001060733018    0.0900
     11 N11        -1.7250    2.2934   49.9275 N.am    1  ZINC001060733018   -0.7300
     12 C12        -1.1106    2.9637   48.9327 C.2     1  ZINC001060733018    0.5200
     13 O13        -1.1171    4.1765   48.9243 O.2     1  ZINC001060733018   -0.5400
     14 C14        -0.4155    2.2063   47.8308 C.3     1  ZINC001060733018   -0.1000
     15 H15        -0.3878    2.8193   46.9300 H       1  ZINC001060733018    0.1000
     16 C16        -1.1769    0.9114   47.5433 C.3     1  ZINC001060733018   -0.1100
     17 C17        -0.5208    0.1722   46.3762 C.3     1  ZINC001060733018   -0.1200
     18 C18         0.9061   -0.2281   46.7633 C.3     1  ZINC001060733018   -0.0800
     19 C19         1.6797    1.0288   47.1725 C.3     1  ZINC001060733018   -0.1300
     20 C20         2.4637    1.7650   46.0863 C.3     1  ZINC001060733018   -0.1700
     21 C21         3.2063    0.9615   47.1561 C.3     1  ZINC001060733018   -0.1700
     22 C22         1.0148    1.8714   48.2648 C.3     1  ZINC001060733018   -0.0600
     23 C23        -1.3882    3.4023   52.0812 C.3     1  ZINC001060733018   -0.1200
     24 C24        -2.0955    4.1712   53.1990 C.3     1  ZINC001060733018   -0.1100
     25 C25        -7.4596    2.8243   55.5908 C.3     1  ZINC001060733018    0.2600
     26 F26        -8.5736    3.6577   55.7381 F       1  ZINC001060733018   -0.1700
     27 F27        -7.7554    1.8077   54.6763 F       1  ZINC001060733018   -0.1900
     28 H28        -4.8806    2.5023   55.9778 H       1  ZINC001060733018    0.4100
     29 H29        -4.2576    5.0173   54.5386 H       1  ZINC001060733018    0.0800
     30 H30        -3.2002    4.2409   55.7417 H       1  ZINC001060733018    0.0800
     31 H31        -4.9871    2.2965   53.1561 H       1  ZINC001060733018    0.0700
     32 H32        -4.6511    3.8287   52.3149 H       1  ZINC001060733018    0.0700
     33 H33        -4.2210    1.8871   50.8336 H       1  ZINC001060733018    0.0700
     34 H34        -3.0536    1.2453   52.0139 H       1  ZINC001060733018    0.0600
     35 H35        -1.7187    1.3234   49.9349 H       1  ZINC001060733018    0.4000
     36 H36        -1.1601    0.2768   48.4294 H       1  ZINC001060733018    0.0700
     37 H37        -2.2095    1.1477   47.2865 H       1  ZINC001060733018    0.0700
     38 H38        -1.0982   -0.7221   46.1418 H       1  ZINC001060733018    0.0700
     39 H39        -0.4912    0.8246   45.5035 H       1  ZINC001060733018    0.0700
     40 H40         0.8753   -0.9262   47.5998 H       1  ZINC001060733018    0.0700
     41 H41         1.3974   -0.6980   45.9114 H       1  ZINC001060733018    0.0700
     42 H42         2.4341    1.3532   45.0775 H       1  ZINC001060733018    0.0900
     43 H43         2.5117    2.8521   46.1495 H       1  ZINC001060733018    0.0900
     44 H44         3.7429    1.5200   47.9231 H       1  ZINC001060733018    0.0900
     45 H45         3.6654    0.0209   46.8515 H       1  ZINC001060733018    0.0900
     46 H46         1.5781    2.7934   48.4085 H       1  ZINC001060733018    0.0700
     47 H47         0.9907    1.3072   49.1972 H       1  ZINC001060733018    0.0800
     48 H48        -0.6070    4.0271   51.6483 H       1  ZINC001060733018    0.0700
     49 H49        -0.9430    2.4950   52.4897 H       1  ZINC001060733018    0.0700
     50 H50        -2.5405    5.0785   52.7906 H       1  ZINC001060733018    0.0700
     51 H51        -1.3731    4.4366   53.9709 H       1  ZINC001060733018    0.0700
     52 H52        -7.2058    2.3833   56.5547 H       1  ZINC001060733018    0.1400
@<TRIPOS>BOND
     1     1     2    2
     2     2     3   am
     3     2    25    1
     4     3     4    1
     5     3    28    1
     6     4     5    1
     7     4    29    1
     8     4    30    1
     9     5     6    1
    10     5    24    1
    11     5     7    1
    12     7     8    1
    13     7    31    1
    14     7    32    1
    15     8     9    1
    16     8    33    1
    17     8    34    1
    18     9    10    1
    19     9    11    1
    20     9    23    1
    21    11    12   am
    22    11    35    1
    23    12    13    2
    24    12    14    1
    25    14    15    1
    26    14    22    1
    27    14    16    1
    28    16    17    1
    29    16    36    1
    30    16    37    1
    31    17    18    1
    32    17    38    1
    33    17    39    1
    34    18    19    1
    35    18    40    1
    36    18    41    1
    37    19    21    1
    38    19    20    1
    39    19    22    1
    40    20    21    1
    41    20    42    1
    42    20    43    1
    43    21    44    1
    44    21    45    1
    45    22    46    1
    46    22    47    1
    47    23    24    1
    48    23    48    1
    49    23    49    1
    50    24    50    1
    51    24    51    1
    52    25    26    1
    53    25    27    1
    54    25    52    1
@<TRIPOS>SUBSTRUCTURE
     1 ZINC001060733018        1 TEMP              0 ****  ****    0 ROOT


##########                                Name:    ZINC001284642199
##########                DOCK_Rotatable_Bonds:                   8
##########                         Heavy_Atoms:                  25
##########                    Molecular_Weight:             346.516
##########                DOCK_Rotatable_Bonds:                   8
##########                       Formal_Charge:         -3.8743e-07
##########                     HBond_Acceptors:                   5
##########                        HBond_Donors:                   2
##########                         Heavy_Atoms:                  25
##########                          Grid_Score:          -30.515678
##########                     Grid_vdw_energy:          -30.508335
##########                      Grid_es_energy:           -0.007344
##########           Internal_energy_repulsive:           19.599039

@<TRIPOS>MOLECULE
ZINC001284642199
 59 60 1 0 0
SMALL
USER_CHARGES


@<TRIPOS>ATOM
      1 C1         -1.9409    3.4217   52.3673 C.3     1  ZINC001284642199   -0.1100
      2 C2         -3.2530    2.7027   52.1878 C.ar    1  ZINC001284642199   -0.1900
      3 C3         -4.4375    3.2644   52.6378 C.ar    1  ZINC001284642199    0.1500
      4 N4         -5.5707    2.6039   52.4623 N.ar    1  ZINC001284642199   -0.4900
      5 C5         -5.5813    1.4272   51.8685 C.ar    1  ZINC001284642199    0.3100
      6 C6         -6.8936    0.7082   51.6890 C.3     1  ZINC001284642199    0.1300
      7 N7         -7.2255   -0.0199   52.9210 N.3     1  ZINC001284642199   -0.6800
      8 C8         -8.1186    0.7729   53.7765 C.3     1  ZINC001284642199    0.0500
      9 C9         -9.5625    0.6069   53.2986 C.3     1  ZINC001284642199    0.1600
     10 H10        -9.5694    0.3983   52.2287 H       1  ZINC001284642199    0.1000
     11 N11       -10.1900   -0.5048   54.0171 N.am    1  ZINC001284642199   -0.7200
     12 C12       -10.4149   -1.6740   53.3856 C.2     1  ZINC001284642199    0.5200
     13 O13       -10.0964   -1.8063   52.2228 O.2     1  ZINC001284642199   -0.5300
     14 C14       -11.0620   -2.8171   54.1242 C.3     1  ZINC001284642199   -0.1100
     15 H15       -10.4674   -3.7205   53.9883 H       1  ZINC001284642199    0.0900
     16 C16       -11.1441   -2.4801   55.6144 C.3     1  ZINC001284642199   -0.1000
     17 C17       -11.8011   -3.6406   56.3643 C.3     1  ZINC001284642199   -0.1100
     18 C18       -13.2106   -3.8701   55.8149 C.3     1  ZINC001284642199   -0.0900
     19 H19       -13.8051   -2.9667   55.9509 H       1  ZINC001284642199    0.0700
     20 C20       -13.8675   -5.0308   56.5648 C.3     1  ZINC001284642199   -0.1500
     21 C21       -13.1284   -4.2072   54.3248 C.3     1  ZINC001284642199   -0.1100
     22 C22       -12.4715   -3.0467   53.5749 C.3     1  ZINC001284642199   -0.1100
     23 C23       -10.3414    1.8952   53.5719 C.3     1  ZINC001284642199   -0.0800
     24 C24       -10.1602    2.2999   55.0362 C.3     1  ZINC001284642199   -0.1400
     25 C25        -9.8164    3.0106   52.6657 C.3     1  ZINC001284642199   -0.1400
     26 C26       -11.8267    1.6633   53.2870 C.3     1  ZINC001284642199   -0.1300
     27 N27        -4.4744    0.8603   51.4324 N.ar    1  ZINC001284642199   -0.5100
     28 C28        -3.3045    1.4639   51.5683 C.ar    1  ZINC001284642199    0.1500
     29 H29        -1.4970    3.1350   53.3207 H       1  ZINC001284642199    0.0800
     30 H30        -1.2648    3.1520   51.5560 H       1  ZINC001284642199    0.0700
     31 H31        -2.1118    4.4981   52.3552 H       1  ZINC001284642199    0.0700
     32 H32        -4.4356    4.2280   53.1254 H       1  ZINC001284642199    0.1700
     33 H33        -6.8115    0.0036   50.8614 H       1  ZINC001284642199    0.1000
     34 H34        -7.6783    1.4331   51.4727 H       1  ZINC001284642199    0.0600
     35 H35        -6.3898   -0.2866   53.4196 H       1  ZINC001284642199    0.3400
     36 H36        -7.8360    1.8242   53.7212 H       1  ZINC001284642199    0.0900
     37 H37        -8.0351    0.4280   54.8071 H       1  ZINC001284642199    0.0400
     38 H38       -10.4437   -0.3995   54.9474 H       1  ZINC001284642199    0.3900
     39 H39       -11.7387   -1.5766   55.7503 H       1  ZINC001284642199    0.0700
     40 H40       -10.1401   -2.3165   56.0059 H       1  ZINC001284642199    0.0700
     41 H41       -11.8597   -3.4005   57.4259 H       1  ZINC001284642199    0.0700
     42 H42       -11.2066   -4.5440   56.2284 H       1  ZINC001284642199    0.0600
     43 H43       -13.9261   -4.7906   57.6264 H       1  ZINC001284642199    0.0500
     44 H44       -14.8716   -5.1943   56.1734 H       1  ZINC001284642199    0.0500
     45 H45       -13.2730   -5.9341   56.4289 H       1  ZINC001284642199    0.0500
     46 H46       -12.5338   -5.1106   54.1889 H       1  ZINC001284642199    0.0600
     47 H47       -14.1324   -4.3708   53.9333 H       1  ZINC001284642199    0.0700
     48 H48       -13.0660   -2.1433   53.7108 H       1  ZINC001284642199    0.0700
     49 H49       -12.4129   -3.2868   52.5133 H       1  ZINC001284642199    0.0600
     50 H50        -9.1020    2.4650   55.2392 H       1  ZINC001284642199    0.0600
     51 H51       -10.7151    3.2176   55.2310 H       1  ZINC001284642199    0.0600
     52 H52       -10.5342    1.5052   55.6818 H       1  ZINC001284642199    0.0500
     53 H53        -9.9455    2.7224   51.6225 H       1  ZINC001284642199    0.0600
     54 H54       -10.3713    3.9284   52.8604 H       1  ZINC001284642199    0.0600
     55 H55        -8.7583    3.1758   52.8687 H       1  ZINC001284642199    0.0600
     56 H56       -12.2007    0.8687   53.9325 H       1  ZINC001284642199    0.0500
     57 H57       -12.3816    2.5811   53.4817 H       1  ZINC001284642199    0.0500
     58 H58       -11.9558    1.3751   52.2438 H       1  ZINC001284642199    0.0600
     59 H59        -2.4016    0.9955   51.2053 H       1  ZINC001284642199    0.1700
@<TRIPOS>BOND
     1     1     2    1
     2     1    29    1
     3     1    30    1
     4     1    31    1
     5     2    28   ar
     6     2     3   ar
     7     3     4   ar
     8     3    32    1
     9     4     5   ar
    10     5     6    1
    11     5    27   ar
    12     6     7    1
    13     6    33    1
    14     6    34    1
    15     7     8    1
    16     7    35    1
    17     8     9    1
    18     8    36    1
    19     8    37    1
    20     9    10    1
    21     9    11    1
    22     9    23    1
    23    11    12   am
    24    11    38    1
    25    12    13    2
    26    12    14    1
    27    14    15    1
    28    14    22    1
    29    14    16    1
    30    16    17    1
    31    16    39    1
    32    16    40    1
    33    17    18    1
    34    17    41    1
    35    17    42    1
    36    18    19    1
    37    18    20    1
    38    18    21    1
    39    20    43    1
    40    20    44    1
    41    20    45    1
    42    21    22    1
    43    21    46    1
    44    21    47    1
    45    22    48    1
    46    22    49    1
    47    23    24    1
    48    23    25    1
    49    23    26    1
    50    24    50    1
    51    24    51    1
    52    24    52    1
    53    25    53    1
    54    25    54    1
    55    25    55    1
    56    26    56    1
    57    26    57    1
    58    26    58    1
    59    27    28   ar
    60    28    59    1
@<TRIPOS>SUBSTRUCTURE
     1 ZINC001284642199        1 TEMP              0 ****  ****    0 ROOT


##########                                Name:    ZINC000482187991
##########                DOCK_Rotatable_Bonds:                  11
##########                         Heavy_Atoms:                  29
##########                    Molecular_Weight:             407.414
##########                DOCK_Rotatable_Bonds:                  11
##########                       Formal_Charge:           0.0299996
##########                     HBond_Acceptors:                   8
##########                        HBond_Donors:                   1
##########                         Heavy_Atoms:                  29
##########                          Grid_Score:          -30.515560
##########                     Grid_vdw_energy:          -30.298437
##########                      Grid_es_energy:           -0.217123
##########           Internal_energy_repulsive:           14.721634

@<TRIPOS>MOLECULE
ZINC000482187991
 52 53 1 0 0
SMALL
USER_CHARGES


@<TRIPOS>ATOM
      1 C1        -10.2161   -0.3555   57.8636 C.3     1  ZINC000482187991    0.0200
      2 O2        -11.5895   -0.5295   57.5091 O.3     1  ZINC000482187991   -0.3000
      3 C3        -11.8951   -1.6021   56.7308 C.ar    1  ZINC000482187991    0.1400
      4 C4        -11.8329   -1.4963   55.3551 C.ar    1  ZINC000482187991   -0.1700
      5 C5        -12.1473   -2.6012   54.5548 C.ar    1  ZINC000482187991   -0.1000
      6 C6        -12.0819   -2.4929   53.0917 C.2     1  ZINC000482187991    0.4000
      7 O7        -11.2801   -3.1573   52.4696 O.2     1  ZINC000482187991   -0.4500
      8 C8        -13.0111   -1.5564   52.3632 C.3     1  ZINC000482187991   -0.1500
      9 C9        -12.2568   -0.8785   51.2176 C.3     1  ZINC000482187991   -0.1300
     10 C10       -11.4383    0.2640   51.7616 C.2     1  ZINC000482187991    0.5200
     11 O11       -11.9743    1.3162   52.0381 O.2     1  ZINC000482187991   -0.5200
     12 N12       -10.1107    0.1165   51.9407 N.am    1  ZINC000482187991   -0.7200
     13 C13        -9.3148    1.2277   52.4679 C.3     1  ZINC000482187991    0.1500
     14 H14        -9.6371    2.1588   52.0017 H       1  ZINC000482187991    0.1300
     15 C15        -7.8581    0.9912   52.1628 C.ar    1  ZINC000482187991   -0.1100
     16 C16        -7.4021   -0.2909   51.9197 C.ar    1  ZINC000482187991   -0.1000
     17 C17        -6.0659   -0.5079   51.6399 C.ar    1  ZINC000482187991   -0.1200
     18 C18        -5.1856    0.5574   51.6029 C.ar    1  ZINC000482187991   -0.1100
     19 C19        -5.6418    1.8397   51.8452 C.ar    1  ZINC000482187991   -0.1200
     20 C20        -6.9788    2.0571   52.1207 C.ar    1  ZINC000482187991   -0.1000
     21 C21        -9.5100    1.3215   53.9825 C.3     1  ZINC000482187991    0.2500
     22 F22        -9.0184    0.1604   54.5887 F       1  ZINC000482187991   -0.1900
     23 F23        -8.8177    2.4333   54.4740 F       1  ZINC000482187991   -0.2000
     24 C24       -12.5237   -3.8100   55.1529 C.ar    1  ZINC000482187991   -0.1900
     25 C25       -12.5836   -3.9082   56.5293 C.ar    1  ZINC000482187991    0.1400
     26 O26       -12.9487   -5.0820   57.1112 O.3     1  ZINC000482187991   -0.3000
     27 C27       -14.2793   -5.5415   56.8656 C.3     1  ZINC000482187991    0.0200
     28 C28       -12.2649   -2.8080   57.3225 C.ar    1  ZINC000482187991    0.0600
     29 O29       -12.3246   -2.9086   58.6758 O.3     1  ZINC000482187991   -0.3100
     30 C30       -13.5190   -2.4449   59.3087 C.3     1  ZINC000482187991    0.0400
     31 H31       -10.1109    0.5346   58.4839 H       1  ZINC000482187991    0.1100
     32 H32        -9.8707   -1.2278   58.4184 H       1  ZINC000482187991    0.0600
     33 H33        -9.6191   -0.2405   56.9588 H       1  ZINC000482187991    0.0600
     34 H34       -11.5425   -0.5622   54.8973 H       1  ZINC000482187991    0.1500
     35 H35       -13.8529   -2.1199   51.9607 H       1  ZINC000482187991    0.1100
     36 H36       -13.3788   -0.7985   53.0548 H       1  ZINC000482187991    0.1100
     37 H37       -11.5973   -1.6021   50.7384 H       1  ZINC000482187991    0.1000
     38 H38       -12.9709   -0.4983   50.4871 H       1  ZINC000482187991    0.1000
     39 H39        -9.6822   -0.7255   51.7208 H       1  ZINC000482187991    0.4100
     40 H40        -8.0898   -1.1232   51.9486 H       1  ZINC000482187991    0.1200
     41 H41        -5.7095   -1.5096   51.4506 H       1  ZINC000482187991    0.1300
     42 H42        -4.1415    0.3878   51.3850 H       1  ZINC000482187991    0.1300
     43 H43        -4.9540    2.6718   51.8166 H       1  ZINC000482187991    0.1300
     44 H44        -7.3351    3.0589   52.3100 H       1  ZINC000482187991    0.1300
     45 H45       -10.5717    1.4266   54.2062 H       1  ZINC000482187991    0.1200
     46 H46       -12.7672   -4.6643   54.5387 H       1  ZINC000482187991    0.1500
     47 H47       -14.9923   -4.8008   57.2279 H       1  ZINC000482187991    0.0600
     48 H48       -14.4211   -5.6889   55.7949 H       1  ZINC000482187991    0.0600
     49 H49       -14.4397   -6.4854   57.3866 H       1  ZINC000482187991    0.1100
     50 H50       -13.6605   -1.3871   59.0870 H       1  ZINC000482187991    0.0500
     51 H51       -14.3718   -3.0116   58.9349 H       1  ZINC000482187991    0.0500
     52 H52       -13.4358   -2.5822   60.3868 H       1  ZINC000482187991    0.1000
@<TRIPOS>BOND
     1     1     2    1
     2     1    31    1
     3     1    32    1
     4     1    33    1
     5     2     3    1
     6     3    28   ar
     7     3     4   ar
     8     4     5   ar
     9     4    34    1
    10     5     6    1
    11     5    24   ar
    12     6     7    2
    13     6     8    1
    14     8     9    1
    15     8    35    1
    16     8    36    1
    17     9    10    1
    18     9    37    1
    19     9    38    1
    20    10    11    2
    21    10    12   am
    22    12    13    1
    23    12    39    1
    24    13    14    1
    25    13    15    1
    26    13    21    1
    27    15    20   ar
    28    15    16   ar
    29    16    17   ar
    30    16    40    1
    31    17    18   ar
    32    17    41    1
    33    18    19   ar
    34    18    42    1
    35    19    20   ar
    36    19    43    1
    37    20    44    1
    38    21    22    1
    39    21    23    1
    40    21    45    1
    41    24    25   ar
    42    24    46    1
    43    25    26    1
    44    25    28   ar
    45    26    27    1
    46    27    47    1
    47    27    48    1
    48    27    49    1
    49    28    29    1
    50    29    30    1
    51    30    50    1
    52    30    51    1
    53    30    52    1
@<TRIPOS>SUBSTRUCTURE
     1 ZINC000482187991        1 TEMP              0 ****  ****    0 ROOT


##########                                Name:    ZINC001018437438
##########                DOCK_Rotatable_Bonds:                   8
##########                         Heavy_Atoms:                  24
##########                    Molecular_Weight:              333.39
##########                DOCK_Rotatable_Bonds:                   8
##########                       Formal_Charge:        -4.17233e-07
##########                     HBond_Acceptors:                   8
##########                        HBond_Donors:                   4
##########                         Heavy_Atoms:                  24
##########                          Grid_Score:          -30.512724
##########                     Grid_vdw_energy:          -29.640659
##########                      Grid_es_energy:           -0.872064
##########           Internal_energy_repulsive:           87.674232

@<TRIPOS>MOLECULE
ZINC001018437438
 47 49 1 0 0
SMALL
USER_CHARGES


@<TRIPOS>ATOM
      1 C1          1.6592   -0.0165   46.7615 C.3     1  ZINC001018437438   -0.1400
      2 C2          0.8957    1.0676   47.5246 C.3     1  ZINC001018437438    0.1400
      3 H3          1.1223    2.0442   47.0965 H       1  ZINC001018437438    0.0700
      4 C4         -0.6096    0.8010   47.4270 C.3     1  ZINC001018437438   -0.1300
      5 C5         -1.3597    1.8054   48.3049 C.3     1  ZINC001018437438   -0.1300
      6 C6         -0.9316    1.6297   49.7637 C.3     1  ZINC001018437438    0.1300
      7 H7         -1.1415    0.6092   50.0840 H       1  ZINC001018437438    0.1000
      8 N8         -1.6736    2.5696   50.6076 N.am    1  ZINC001018437438   -0.7200
      9 C9         -2.8297    2.1881   51.1857 C.2     1  ZINC001018437438    0.6000
     10 O10        -3.2563    1.0630   51.0081 O.2     1  ZINC001018437438   -0.5100
     11 C11        -3.5760    3.1329   52.0321 C.2     1  ZINC001018437438   -0.0400
     12 C12        -4.7410    2.8775   52.7344 C.2     1  ZINC001018437438   -0.1400
     13 C13        -5.0557    4.0767   53.3776 C.2     1  ZINC001018437438    0.0600
     14 C14        -6.2430    4.3179   54.2736 C.3     1  ZINC001018437438   -0.0800
     15 C15        -6.8995    3.0967   54.9206 C.3     1  ZINC001018437438   -0.1700
     16 C16        -6.0634    4.0558   55.7703 C.3     1  ZINC001018437438   -0.1600
     17 N17        -4.1359    4.9534   53.0646 N.2     1  ZINC001018437438   -0.2600
     18 N18        -3.2545    4.4359   52.2866 N.pl3   1  ZINC001018437438   -0.3800
     19 C19         0.5701    1.9057   49.8878 C.3     1  ZINC001018437438    0.1000
     20 N20         1.2919    1.0461   48.9392 N.am    1  ZINC001018437438   -0.6100
     21 C21         2.2944    0.2496   49.3599 C.2     1  ZINC001018437438    0.5200
     22 O22         2.8793   -0.4587   48.5680 O.2     1  ZINC001018437438   -0.4800
     23 C23         2.6887    0.2392   50.8145 C.3     1  ZINC001018437438   -0.1700
     24 C24         3.8532   -0.6967   51.0125 C.2     1  ZINC001018437438    0.5200
     25 N25         3.6331   -2.0025   51.2632 N.am    1  ZINC001018437438   -0.8600
     26 O26         4.9882   -0.2748   50.9463 O.2     1  ZINC001018437438   -0.5000
     27 H27         1.5112   -0.9787   47.2519 H       1  ZINC001018437438    0.0700
     28 H28         1.2887   -0.0697   45.7378 H       1  ZINC001018437438    0.0500
     29 H29         2.7218    0.2263   46.7511 H       1  ZINC001018437438    0.0800
     30 H30        -0.9321    0.9109   46.3915 H       1  ZINC001018437438    0.0900
     31 H31        -0.8227   -0.2116   47.7693 H       1  ZINC001018437438    0.0700
     32 H32        -1.1267    2.8187   47.9776 H       1  ZINC001018437438    0.0700
     33 H33        -2.4325    1.6336   48.2180 H       1  ZINC001018437438    0.0800
     34 H34        -1.3328    3.4665   50.7503 H       1  ZINC001018437438    0.4000
     35 H35        -5.2901    1.9484   52.7761 H       1  ZINC001018437438    0.1700
     36 H36        -6.8924    5.1433   53.9816 H       1  ZINC001018437438    0.1200
     37 H37        -7.9811    3.1183   55.0542 H       1  ZINC001018437438    0.1000
     38 H38        -6.4725    2.1188   54.6980 H       1  ZINC001018437438    0.1000
     39 H39        -5.0864    3.7089   56.1068 H       1  ZINC001018437438    0.1000
     40 H40        -6.5949    4.7084   56.4628 H       1  ZINC001018437438    0.1000
     41 H41        -2.4823    4.9013   51.9288 H       1  ZINC001018437438    0.4400
     42 H42         0.7698    2.9516   49.6548 H       1  ZINC001018437438    0.0700
     43 H43         0.8993    1.6862   50.9035 H       1  ZINC001018437438    0.0900
     44 H44         2.9751    1.2454   51.1205 H       1  ZINC001018437438    0.1200
     45 H45         1.8453   -0.0976   51.4171 H       1  ZINC001018437438    0.1200
     46 H46         4.3824   -2.6048   51.3918 H       1  ZINC001018437438    0.4000
     47 H47         2.7252   -2.3401   51.3149 H       1  ZINC001018437438    0.4000
@<TRIPOS>BOND
     1     1     2    1
     2     1    27    1
     3     1    28    1
     4     1    29    1
     5     2     3    1
     6     2    20    1
     7     2     4    1
     8     4     5    1
     9     4    30    1
    10     4    31    1
    11     5     6    1
    12     5    32    1
    13     5    33    1
    14     6     7    1
    15     6     8    1
    16     6    19    1
    17     8     9   am
    18     8    34    1
    19     9    10    2
    20     9    11    1
    21    11    18    1
    22    11    12    2
    23    12    13    1
    24    12    35    1
    25    13    14    1
    26    13    17    2
    27    14    16    1
    28    14    15    1
    29    14    36    1
    30    15    16    1
    31    15    37    1
    32    15    38    1
    33    16    39    1
    34    16    40    1
    35    17    18    1
    36    18    41    1
    37    19    20    1
    38    19    42    1
    39    19    43    1
    40    20    21   am
    41    21    22    2
    42    21    23    1
    43    23    24    1
    44    23    44    1
    45    23    45    1
    46    24    25   am
    47    24    26    2
    48    25    46    1
    49    25    47    1
@<TRIPOS>SUBSTRUCTURE
     1 ZINC001018437438        1 TEMP              0 ****  ****    0 ROOT


##########                                Name:    ZINC001312809190
##########                DOCK_Rotatable_Bonds:                   6
##########                         Heavy_Atoms:                  29
##########                    Molecular_Weight:             395.501
##########                DOCK_Rotatable_Bonds:                   6
##########                       Formal_Charge:           0.0199995
##########                     HBond_Acceptors:                   6
##########                        HBond_Donors:                   1
##########                         Heavy_Atoms:                  29
##########                          Grid_Score:          -30.508074
##########                     Grid_vdw_energy:          -27.886061
##########                      Grid_es_energy:           -2.622013
##########           Internal_energy_repulsive:           30.521284

@<TRIPOS>MOLECULE
ZINC001312809190
 58 61 1 0 0
SMALL
USER_CHARGES


@<TRIPOS>ATOM
      1 C1         -1.2858    1.8451   46.8326 C.3     1  ZINC001312809190    0.0300
      2 O2         -1.3306    2.9228   47.7700 O.3     1  ZINC001312809190   -0.3200
      3 C3         -0.6605    2.7511   48.9398 C.ar    1  ZINC001312809190    0.1300
      4 C4         -0.0280    1.5461   49.2077 C.ar    1  ZINC001312809190   -0.2100
      5 C5          0.6531    1.3743   50.3975 C.ar    1  ZINC001312809190   -0.0800
      6 C6          0.7040    2.4019   51.3208 C.ar    1  ZINC001312809190   -0.1300
      7 C7          0.0738    3.6041   51.0562 C.ar    1  ZINC001312809190   -0.0500
      8 C8          0.1309    4.7221   52.0651 C.3     1  ZINC001312809190    0.1200
      9 H9          0.2094    5.6770   51.5453 H       1  ZINC001312809190    0.0500
     10 C10         1.3505    4.5316   52.9690 C.3     1  ZINC001312809190   -0.1400
     11 N11        -1.0905    4.7081   52.8814 N.3     1  ZINC001312809190   -0.5300
     12 C12        -1.7206    3.3812   52.8631 C.3     1  ZINC001312809190    0.0300
     13 C13        -2.8813    3.3568   53.8633 C.3     1  ZINC001312809190    0.1400
     14 N14        -3.7834    4.4779   53.5595 N.am    1  ZINC001312809190   -0.6300
     15 C15        -5.1078    4.2788   53.4083 C.2     1  ZINC001312809190    0.7100
     16 O16        -5.8389    5.2173   53.1573 O.2     1  ZINC001312809190   -0.5800
     17 N17        -5.6217    3.0393   53.5352 N.am    1  ZINC001312809190   -0.7300
     18 C18        -7.0612    2.8228   53.3707 C.3     1  ZINC001312809190    0.1800
     19 H19        -7.5031    3.6063   52.7551 H       1  ZINC001312809190    0.1200
     20 C20        -7.3398    1.4518   52.7857 C.ar    1  ZINC001312809190   -0.1900
     21 C21        -6.7838    0.7677   51.7279 C.ar    1  ZINC001312809190   -0.0500
     22 C22        -7.2350   -0.5019   51.4119 C.ar    1  ZINC001312809190   -0.1500
     23 C23        -8.2438   -1.0782   52.1611 C.ar    1  ZINC001312809190   -0.0800
     24 C24        -8.8047   -0.3929   53.2191 C.ar    1  ZINC001312809190   -0.1400
     25 C25        -8.3589    0.8861   53.5416 C.ar    1  ZINC001312809190    0.1100
     26 O26        -8.7780    1.7364   54.5187 O.3     1  ZINC001312809190   -0.2900
     27 C27        -7.7674    2.7348   54.7444 C.3     1  ZINC001312809190    0.0800
     28 H28        -7.0700    2.4105   55.5167 H       1  ZINC001312809190    0.0900
     29 C29        -8.4035    4.0747   55.1195 C.3     1  ZINC001312809190   -0.1500
     30 C30        -3.2021    5.8224   53.4258 C.3     1  ZINC001312809190    0.1200
     31 C31        -2.0288    5.7497   52.4428 C.3     1  ZINC001312809190    0.0400
     32 C32        -0.6031    3.7830   49.8655 C.ar    1  ZINC001312809190   -0.1500
     33 H33        -1.8595    2.1116   45.9449 H       1  ZINC001312809190    0.1000
     34 H34        -0.2507    1.6508   46.5514 H       1  ZINC001312809190    0.0600
     35 H35        -1.7130    0.9509   47.2863 H       1  ZINC001312809190    0.0600
     36 H36        -0.0681    0.7427   48.4871 H       1  ZINC001312809190    0.1300
     37 H37         1.1457    0.4362   50.6067 H       1  ZINC001312809190    0.1300
     38 H38         1.2365    2.2656   52.2504 H       1  ZINC001312809190    0.1300
     39 H39         1.2719    3.5767   53.4889 H       1  ZINC001312809190    0.0700
     40 H40         2.2568    4.5420   52.3634 H       1  ZINC001312809190    0.0600
     41 H41         1.3918    5.3403   53.6987 H       1  ZINC001312809190    0.0600
     42 H42        -2.0984    3.1718   51.8622 H       1  ZINC001312809190    0.0400
     43 H43        -0.9855    2.6256   53.1402 H       1  ZINC001312809190    0.1000
     44 H44        -3.4234    2.4155   53.7722 H       1  ZINC001312809190    0.1000
     45 H45        -2.4937    3.4627   54.8765 H       1  ZINC001312809190    0.0700
     46 H46        -5.0383    2.2905   53.7352 H       1  ZINC001312809190    0.4000
     47 H47        -5.9962    1.2218   51.1450 H       1  ZINC001312809190    0.1200
     48 H48        -6.8007   -1.0405   50.5826 H       1  ZINC001312809190    0.1300
     49 H49        -8.5949   -2.0698   51.9168 H       1  ZINC001312809190    0.1300
     50 H50        -9.5927   -0.8502   53.7991 H       1  ZINC001312809190    0.1300
     51 H51        -8.9694    3.9621   56.0443 H       1  ZINC001312809190    0.0800
     52 H52        -7.6218    4.8212   55.2604 H       1  ZINC001312809190    0.0800
     53 H53        -9.0727    4.3955   54.3210 H       1  ZINC001312809190    0.0700
     54 H54        -3.9563    6.5112   53.0454 H       1  ZINC001312809190    0.0800
     55 H55        -2.8454    6.1652   54.3970 H       1  ZINC001312809190    0.0800
     56 H56        -1.5173    6.7119   52.4153 H       1  ZINC001312809190    0.0900
     57 H57        -2.4023    5.5073   51.4479 H       1  ZINC001312809190    0.0400
     58 H58        -1.0948    4.7222   49.6593 H       1  ZINC001312809190    0.1300
@<TRIPOS>BOND
     1     1     2    1
     2     1    33    1
     3     1    34    1
     4     1    35    1
     5     2     3    1
     6     3    32   ar
     7     3     4   ar
     8     4     5   ar
     9     4    36    1
    10     5     6   ar
    11     5    37    1
    12     6     7   ar
    13     6    38    1
    14     7     8    1
    15     7    32   ar
    16     8     9    1
    17     8    10    1
    18     8    11    1
    19    10    39    1
    20    10    40    1
    21    10    41    1
    22    11    31    1
    23    11    12    1
    24    12    13    1
    25    12    42    1
    26    12    43    1
    27    13    14    1
    28    13    44    1
    29    13    45    1
    30    14    15   am
    31    14    30    1
    32    15    16    2
    33    15    17   am
    34    17    18    1
    35    17    46    1
    36    18    19    1
    37    18    27    1
    38    18    20    1
    39    20    25   ar
    40    20    21   ar
    41    21    22   ar
    42    21    47    1
    43    22    23   ar
    44    22    48    1
    45    23    24   ar
    46    23    49    1
    47    24    25   ar
    48    24    50    1
    49    25    26    1
    50    26    27    1
    51    27    28    1
    52    27    29    1
    53    29    51    1
    54    29    52    1
    55    29    53    1
    56    30    31    1
    57    30    54    1
    58    30    55    1
    59    31    56    1
    60    31    57    1
    61    32    58    1
@<TRIPOS>SUBSTRUCTURE
     1 ZINC001312809190        1 TEMP              0 ****  ****    0 ROOT


##########                                Name:    ZINC000970996691
##########                DOCK_Rotatable_Bonds:                   7
##########                         Heavy_Atoms:                  24
##########                    Molecular_Weight:             334.462
##########                DOCK_Rotatable_Bonds:                   7
##########                       Formal_Charge:          -0.0199999
##########                     HBond_Acceptors:                   6
##########                        HBond_Donors:                   0
##########                         Heavy_Atoms:                  24
##########                          Grid_Score:          -30.488855
##########                     Grid_vdw_energy:          -31.301462
##########                      Grid_es_energy:            0.812606
##########           Internal_energy_repulsive:           10.663772

@<TRIPOS>MOLECULE
ZINC000970996691
 54 56 1 0 0
SMALL
USER_CHARGES


@<TRIPOS>ATOM
      1 C1         -7.4553   -1.3918   51.9424 C.3     1  ZINC000970996691   -0.1500
      2 C2         -6.1977   -0.5481   52.1598 C.3     1  ZINC000970996691   -0.1200
      3 C3         -6.5588    0.9364   52.0769 C.3     1  ZINC000970996691   -0.0300
      4 C4         -5.3273    1.7677   52.3284 C.2     1  ZINC000970996691    0.1800
      5 N5         -4.1162    1.5220   51.8897 N.2     1  ZINC000970996691   -0.4700
      6 C6         -3.3510    2.5236   52.3589 C.2     1  ZINC000970996691    0.1800
      7 C7         -1.8720    2.6990   52.1293 C.3     1  ZINC000970996691    0.1500
      8 N8         -1.6568    3.5423   50.9460 N.3     1  ZINC000970996691   -0.5200
      9 C9         -1.0460    4.8255   51.3180 C.3     1  ZINC000970996691    0.0200
     10 C10        -0.8429    2.8433   49.9424 C.3     1  ZINC000970996691    0.0700
     11 H11         0.1094    2.5257   50.3671 H       1  ZINC000970996691    0.0600
     12 C12        -1.6139    1.6379   49.3426 C.3     1  ZINC000970996691   -0.1300
     13 C13        -0.9780    1.4816   47.9452 C.3     1  ZINC000970996691    0.1000
     14 N14        -0.3737    2.7749   47.5935 N.am    1  ZINC000970996691   -0.6200
     15 C15         0.2983    3.0448   46.4568 C.2     1  ZINC000970996691    0.5300
     16 O16         0.4450    2.1802   45.6191 O.2     1  ZINC000970996691   -0.5300
     17 C17         0.8673    4.4212   46.2267 C.3     1  ZINC000970996691   -0.1000
     18 C18         2.3847    4.3845   46.4194 C.3     1  ZINC000970996691   -0.1100
     19 C19         2.9624    5.7819   46.1858 C.3     1  ZINC000970996691   -0.1200
     20 C20         2.6401    6.2352   44.7605 C.3     1  ZINC000970996691   -0.1200
     21 C21         1.1227    6.2719   44.5677 C.3     1  ZINC000970996691   -0.1200
     22 C22         0.5450    4.8746   44.8013 C.3     1  ZINC000970996691   -0.1000
     23 C23        -0.6247    3.7285   48.6900 C.3     1  ZINC000970996691    0.1200
     24 N24        -4.1214    3.3127   53.0463 N.2     1  ZINC000970996691   -0.3800
     25 O25        -5.2618    2.8993   53.0363 O.3     1  ZINC000970996691    0.0800
     26 H26        -8.1904   -1.1532   52.7111 H       1  ZINC000970996691    0.0600
     27 H27        -7.8736   -1.1740   50.9596 H       1  ZINC000970996691    0.0600
     28 H28        -7.1982   -2.4494   52.0015 H       1  ZINC000970996691    0.0600
     29 H29        -5.7794   -0.7660   53.1426 H       1  ZINC000970996691    0.0700
     30 H30        -5.4627   -0.7867   51.3912 H       1  ZINC000970996691    0.0700
     31 H31        -6.9516    1.1598   51.0850 H       1  ZINC000970996691    0.1100
     32 H32        -7.3139    1.1691   52.8276 H       1  ZINC000970996691    0.1000
     33 H33        -1.4229    3.1746   53.0011 H       1  ZINC000970996691    0.0700
     34 H34        -1.4111    1.7241   51.9695 H       1  ZINC000970996691    0.1100
     35 H35        -0.0842    4.6445   51.7979 H       1  ZINC000970996691    0.0300
     36 H36        -0.8977    5.4302   50.4234 H       1  ZINC000970996691    0.0800
     37 H37        -1.7032    5.3538   52.0089 H       1  ZINC000970996691    0.0700
     38 H38        -1.4542    0.7413   49.9414 H       1  ZINC000970996691    0.0800
     39 H39        -2.6773    1.8630   49.2595 H       1  ZINC000970996691    0.0900
     40 H40        -0.2101    0.7086   47.9717 H       1  ZINC000970996691    0.0700
     41 H41        -1.7449    1.2203   47.2160 H       1  ZINC000970996691    0.0700
     42 H42         0.4274    5.1198   46.9384 H       1  ZINC000970996691    0.0900
     43 H43         2.6142    4.0615   47.4349 H       1  ZINC000970996691    0.0700
     44 H44         2.8245    3.6859   45.7077 H       1  ZINC000970996691    0.0700
     45 H45         2.5225    6.4805   46.8975 H       1  ZINC000970996691    0.0600
     46 H46         4.0433    5.7557   46.3231 H       1  ZINC000970996691    0.0700
     47 H47         3.0517    7.2307   44.5941 H       1  ZINC000970996691    0.0600
     48 H48         3.0799    5.5365   44.0488 H       1  ZINC000970996691    0.0600
     49 H49         0.6829    6.9706   45.2794 H       1  ZINC000970996691    0.0600
     50 H50         0.8931    6.5949   43.5524 H       1  ZINC000970996691    0.0700
     51 H51         0.9849    4.1759   44.0897 H       1  ZINC000970996691    0.0800
     52 H52        -0.5360    4.9007   44.6641 H       1  ZINC000970996691    0.0600
     53 H53        -1.5177    4.3183   48.4829 H       1  ZINC000970996691    0.0800
     54 H54         0.2374    4.3806   48.8305 H       1  ZINC000970996691    0.0800
@<TRIPOS>BOND
     1     1     2    1
     2     1    26    1
     3     1    27    1
     4     1    28    1
     5     2     3    1
     6     2    29    1
     7     2    30    1
     8     3     4    1
     9     3    31    1
    10     3    32    1
    11     4    25    1
    12     4     5    2
    13     5     6    1
    14     6     7    1
    15     6    24    2
    16     7     8    1
    17     7    33    1
    18     7    34    1
    19     8     9    1
    20     8    10    1
    21     9    35    1
    22     9    36    1
    23     9    37    1
    24    10    11    1
    25    10    23    1
    26    10    12    1
    27    12    13    1
    28    12    38    1
    29    12    39    1
    30    13    14    1
    31    13    40    1
    32    13    41    1
    33    14    15   am
    34    14    23    1
    35    15    16    2
    36    15    17    1
    37    17    22    1
    38    17    18    1
    39    17    42    1
    40    18    19    1
    41    18    43    1
    42    18    44    1
    43    19    20    1
    44    19    45    1
    45    19    46    1
    46    20    21    1
    47    20    47    1
    48    20    48    1
    49    21    22    1
    50    21    49    1
    51    21    50    1
    52    22    51    1
    53    22    52    1
    54    23    53    1
    55    23    54    1
    56    24    25    1
@<TRIPOS>SUBSTRUCTURE
     1 ZINC000970996691        1 TEMP              0 ****  ****    0 ROOT


##########                                Name:    ZINC000151820600
##########                DOCK_Rotatable_Bonds:                  10
##########                         Heavy_Atoms:                  25
##########                    Molecular_Weight:             388.915
##########                DOCK_Rotatable_Bonds:                  10
##########                       Formal_Charge:           0.0499998
##########                     HBond_Acceptors:                   8
##########                        HBond_Donors:                   2
##########                         Heavy_Atoms:                  25
##########                          Grid_Score:          -30.456394
##########                     Grid_vdw_energy:          -29.591631
##########                      Grid_es_energy:           -0.864764
##########           Internal_energy_repulsive:           12.064195

@<TRIPOS>MOLECULE
ZINC000151820600
 50 50 1 0 0
SMALL
USER_CHARGES


@<TRIPOS>ATOM
      1 C1        -12.1758    2.8793   46.5045 C.3     1  ZINC000151820600   -0.4900
      2 S2        -13.6827    2.1112   47.1603 S.o     1  ZINC000151820600    1.2500
      3 O3        -14.4353    3.0807   47.8765 O.2     1  ZINC000151820600   -0.8500
      4 C4        -13.0385    0.8708   48.3165 C.3     1  ZINC000151820600   -0.4500
      5 C5        -14.2054    0.1230   48.9645 C.3     1  ZINC000151820600   -0.1100
      6 C6        -13.6622   -0.9962   49.8553 C.3     1  ZINC000151820600    0.1200
      7 N7        -13.0197   -0.4125   51.0354 N.am    1  ZINC000151820600   -0.7200
      8 C8        -12.1846   -1.1580   51.7860 C.2     1  ZINC000151820600    0.5200
      9 O9        -11.9663   -2.3126   51.4852 O.2     1  ZINC000151820600   -0.5200
     10 C10       -11.5222   -0.5571   52.9988 C.3     1  ZINC000151820600    0.1900
     11 H11       -12.1356    0.2588   53.3811 H       1  ZINC000151820600    0.1300
     12 N12       -11.3750   -1.5836   54.0338 N.am    1  ZINC000151820600   -0.6900
     13 C13       -12.1409   -1.5381   55.1419 C.2     1  ZINC000151820600    0.6600
     14 O14       -12.9525   -0.6449   55.2831 O.2     1  ZINC000151820600   -0.5600
     15 O15       -12.0067   -2.4823   56.0922 O.3     1  ZINC000151820600   -0.3600
     16 C16       -13.0386   -3.5017   56.1589 C.3     1  ZINC000151820600    0.1400
     17 C17       -14.2633   -2.9408   56.8845 C.3     1  ZINC000151820600   -0.1800
     18 C18       -13.4334   -3.9212   54.7415 C.3     1  ZINC000151820600   -0.1400
     19 C19       -12.5066   -4.7169   56.9210 C.3     1  ZINC000151820600   -0.1800
     20 C20       -10.1631   -0.0284   52.6188 C.ar    1  ZINC000151820600   -0.1000
     21 C21        -9.9560    1.3342   52.5150 C.ar    1  ZINC000151820600   -0.0900
     22 C22        -8.7092    1.8200   52.1669 C.ar    1  ZINC000151820600   -0.1000
     23 C23        -7.6695    0.9433   51.9220 C.ar    1  ZINC000151820600   -0.1000
     24 C24        -7.8762   -0.4210   52.0257 C.ar    1  ZINC000151820600   -0.0300
     25 Cl25       -6.5703   -1.5230   51.7188 Cl      1  ZINC000151820600   -0.0600
     26 C26        -9.1223   -0.9062   52.3796 C.ar    1  ZINC000151820600   -0.0900
     27 H27       -11.6089    3.3236   47.3226 H       1  ZINC000151820600    0.0800
     28 H28       -11.5675    2.1218   46.0102 H       1  ZINC000151820600    0.1100
     29 H29       -12.4456    3.6539   45.7866 H       1  ZINC000151820600    0.1100
     30 H30       -12.4086    0.1635   47.7769 H       1  ZINC000151820600    0.1200
     31 H31       -12.4500    1.3654   49.0892 H       1  ZINC000151820600    0.0900
     32 H32       -14.7908    0.8163   49.5684 H       1  ZINC000151820600    0.0800
     33 H33       -14.8384   -0.3059   48.1876 H       1  ZINC000151820600    0.0900
     34 H34       -14.4830   -1.6408   50.1699 H       1  ZINC000151820600    0.0800
     35 H35       -12.9327   -1.5831   49.2972 H       1  ZINC000151820600    0.0700
     36 H36       -13.1952    0.5105   51.2766 H       1  ZINC000151820600    0.4000
     37 H37       -10.7262   -2.2959   53.9215 H       1  ZINC000151820600    0.4200
     38 H38       -14.6424   -2.0749   56.3415 H       1  ZINC000151820600    0.0600
     39 H39       -15.0380   -3.7059   56.9346 H       1  ZINC000151820600    0.0700
     40 H40       -13.9820   -2.6419   57.8943 H       1  ZINC000151820600    0.0900
     41 H41       -12.5610   -4.3208   54.2245 H       1  ZINC000151820600    0.0700
     42 H42       -14.2081   -4.6864   54.7916 H       1  ZINC000151820600    0.0800
     43 H43       -13.8125   -3.0554   54.1986 H       1  ZINC000151820600    0.0700
     44 H44       -12.2253   -4.4180   57.9308 H       1  ZINC000151820600    0.0900
     45 H45       -13.2812   -5.4821   56.9711 H       1  ZINC000151820600    0.0700
     46 H46       -11.6341   -5.1165   56.4041 H       1  ZINC000151820600    0.0600
     47 H47       -10.7685    2.0197   52.7056 H       1  ZINC000151820600    0.1300
     48 H48        -8.5480    2.8848   52.0859 H       1  ZINC000151820600    0.1400
     49 H49        -6.6958    1.3229   51.6493 H       1  ZINC000151820600    0.1400
     50 H50        -9.2843   -1.9709   52.4608 H       1  ZINC000151820600    0.1400
@<TRIPOS>BOND
     1     1     2    1
     2     1    27    1
     3     1    28    1
     4     1    29    1
     5     2     3    2
     6     2     4    1
     7     4     5    1
     8     4    30    1
     9     4    31    1
    10     5     6    1
    11     5    32    1
    12     5    33    1
    13     6     7    1
    14     6    34    1
    15     6    35    1
    16     7     8   am
    17     7    36    1
    18     8     9    2
    19     8    10    1
    20    10    11    1
    21    10    12    1
    22    10    20    1
    23    12    13   am
    24    12    37    1
    25    13    14    2
    26    13    15    1
    27    15    16    1
    28    16    17    1
    29    16    18    1
    30    16    19    1
    31    17    38    1
    32    17    39    1
    33    17    40    1
    34    18    41    1
    35    18    42    1
    36    18    43    1
    37    19    44    1
    38    19    45    1
    39    19    46    1
    40    20    26   ar
    41    20    21   ar
    42    21    22   ar
    43    21    47    1
    44    22    23   ar
    45    22    48    1
    46    23    24   ar
    47    23    49    1
    48    24    25    1
    49    24    26   ar
    50    26    50    1
@<TRIPOS>SUBSTRUCTURE
     1 ZINC000151820600        1 TEMP              0 ****  ****    0 ROOT


##########                                Name:    ZINC000558213406
##########                DOCK_Rotatable_Bonds:                   8
##########                         Heavy_Atoms:                  30
##########                    Molecular_Weight:               408.5
##########                DOCK_Rotatable_Bonds:                   8
##########                       Formal_Charge:          -0.0299987
##########                     HBond_Acceptors:                   7
##########                        HBond_Donors:                   2
##########                         Heavy_Atoms:                  30
##########                          Grid_Score:          -30.443022
##########                     Grid_vdw_energy:          -29.991701
##########                      Grid_es_energy:           -0.451320
##########           Internal_energy_repulsive:            8.693187

@<TRIPOS>MOLECULE
ZINC000558213406
 58 61 1 0 0
SMALL
USER_CHARGES


@<TRIPOS>ATOM
      1 O1        -11.8735   -1.1924   58.6121 O.2     1  ZINC000558213406   -0.5700
      2 C2        -11.3191   -2.0456   59.2778 C.2     1  ZINC000558213406    0.7100
      3 N3        -10.9868   -3.2261   58.7189 N.am    1  ZINC000558213406   -0.6800
      4 C4        -11.2854   -3.4724   57.3720 C.ar    1  ZINC000558213406    0.1700
      5 C5        -12.1933   -4.4666   57.0326 C.ar    1  ZINC000558213406   -0.1300
      6 C6        -12.4876   -4.7085   55.7054 C.ar    1  ZINC000558213406   -0.1100
      7 C7        -11.8758   -3.9588   54.7110 C.ar    1  ZINC000558213406    0.0600
      8 O8        -12.1656   -4.1977   53.4044 O.3     1  ZINC000558213406   -0.2500
      9 C9        -12.8022   -3.2230   52.7035 C.ar    1  ZINC000558213406    0.0700
     10 C10       -12.1103   -2.4596   51.7684 C.ar    1  ZINC000558213406   -0.1500
     11 C11       -12.8024   -1.4772   51.0786 C.ar    1  ZINC000558213406   -0.1300
     12 C12       -14.1467   -1.2892   51.3395 C.ar    1  ZINC000558213406    0.0600
     13 N13       -14.7732   -2.0299   52.2329 N.ar    1  ZINC000558213406   -0.4500
     14 C14       -14.1532   -2.9784   52.9060 C.ar    1  ZINC000558213406    0.0800
     15 C15       -10.9689   -2.9650   55.0498 C.ar    1  ZINC000558213406   -0.1000
     16 C16       -10.6778   -2.7186   56.3769 C.ar    1  ZINC000558213406   -0.1100
     17 N17       -11.0320   -1.8087   60.5732 N.am    1  ZINC000558213406   -0.7300
     18 C18       -11.3932   -0.5254   61.1808 C.3     1  ZINC000558213406    0.1500
     19 H19       -11.3604    0.2733   60.4397 H       1  ZINC000558213406    0.1100
     20 C20       -12.7955   -0.6056   61.8398 C.3     1  ZINC000558213406   -0.1400
     21 C21       -12.6888    0.4878   62.9320 C.3     1  ZINC000558213406    0.1000
     22 N22       -11.3023    0.3952   63.4245 N.am    1  ZINC000558213406   -0.6200
     23 C23       -10.8711    0.7952   64.6372 C.2     1  ZINC000558213406    0.5400
     24 O24       -11.6517    1.2800   65.4287 O.2     1  ZINC000558213406   -0.5300
     25 C25        -9.4191    0.6401   65.0095 C.3     1  ZINC000558213406   -0.1000
     26 C26        -8.6623    1.9220   64.6566 C.3     1  ZINC000558213406   -0.1100
     27 C27        -7.1882    1.7645   65.0346 C.3     1  ZINC000558213406   -0.1200
     28 C28        -7.0723    1.5013   66.5373 C.3     1  ZINC000558213406   -0.1200
     29 C29        -7.8292    0.2192   66.8902 C.3     1  ZINC000558213406   -0.1200
     30 C30        -9.3034    0.3767   66.5122 C.3     1  ZINC000558213406   -0.1100
     31 C31       -10.4650   -0.2045   62.3711 C.3     1  ZINC000558213406    0.1000
     32 H32       -10.5409   -3.9052   59.2489 H       1  ZINC000558213406    0.4100
     33 H33       -12.6690   -5.0507   57.8065 H       1  ZINC000558213406    0.1300
     34 H34       -13.1939   -5.4818   55.4413 H       1  ZINC000558213406    0.1400
     35 H35       -11.0594   -2.6284   51.5852 H       1  ZINC000558213406    0.1400
     36 H36       -12.2973   -0.8655   50.3457 H       1  ZINC000558213406    0.1400
     37 H37       -14.6913   -0.5250   50.8048 H       1  ZINC000558213406    0.1600
     38 H38       -14.6998   -3.5649   53.6296 H       1  ZINC000558213406    0.1700
     39 H39       -10.4930   -2.3816   54.2753 H       1  ZINC000558213406    0.1400
     40 H40        -9.9721   -1.9448   56.6404 H       1  ZINC000558213406    0.1500
     41 H41       -10.5861   -2.4878   61.1031 H       1  ZINC000558213406    0.4000
     42 H42       -13.5792   -0.3650   61.1214 H       1  ZINC000558213406    0.0900
     43 H43       -12.9628   -1.5867   62.2843 H       1  ZINC000558213406    0.0800
     44 H44       -12.8737    1.4724   62.5024 H       1  ZINC000558213406    0.0700
     45 H45       -13.3925    0.2871   63.7397 H       1  ZINC000558213406    0.0800
     46 H46        -8.9906   -0.1980   64.4597 H       1  ZINC000558213406    0.0900
     47 H47        -8.7448    2.1096   63.5859 H       1  ZINC000558213406    0.0600
     48 H48        -9.0909    2.7600   65.2063 H       1  ZINC000558213406    0.0700
     49 H49        -6.7596    0.9265   64.4847 H       1  ZINC000558213406    0.0600
     50 H50        -6.6490    2.6778   64.7832 H       1  ZINC000558213406    0.0700
     51 H51        -6.0221    1.3890   66.8066 H       1  ZINC000558213406    0.0600
     52 H52        -7.5009    2.3392   67.0870 H       1  ZINC000558213406    0.0600
     53 H53        -7.4006   -0.6188   66.3405 H       1  ZINC000558213406    0.0600
     54 H54        -7.7466    0.0317   67.9608 H       1  ZINC000558213406    0.0700
     55 H55        -9.7319    1.2147   67.0620 H       1  ZINC000558213406    0.0800
     56 H56        -9.8425   -0.5366   66.7636 H       1  ZINC000558213406    0.0600
     57 H57       -10.0070   -1.1225   62.7392 H       1  ZINC000558213406    0.0800
     58 H58        -9.6923    0.5010   62.0652 H       1  ZINC000558213406    0.0800
@<TRIPOS>BOND
     1     1     2    2
     2     2     3   am
     3     2    17   am
     4     3     4    1
     5     3    32    1
     6     4    16   ar
     7     4     5   ar
     8     5     6   ar
     9     5    33    1
    10     6     7   ar
    11     6    34    1
    12     7     8    1
    13     7    15   ar
    14     8     9    1
    15     9    14   ar
    16     9    10   ar
    17    10    11   ar
    18    10    35    1
    19    11    12   ar
    20    11    36    1
    21    12    13   ar
    22    12    37    1
    23    13    14   ar
    24    14    38    1
    25    15    16   ar
    26    15    39    1
    27    16    40    1
    28    17    18    1
    29    17    41    1
    30    18    19    1
    31    18    31    1
    32    18    20    1
    33    20    21    1
    34    20    42    1
    35    20    43    1
    36    21    22    1
    37    21    44    1
    38    21    45    1
    39    22    23   am
    40    22    31    1
    41    23    24    2
    42    23    25    1
    43    25    30    1
    44    25    26    1
    45    25    46    1
    46    26    27    1
    47    26    47    1
    48    26    48    1
    49    27    28    1
    50    27    49    1
    51    27    50    1
    52    28    29    1
    53    28    51    1
    54    28    52    1
    55    29    30    1
    56    29    53    1
    57    29    54    1
    58    30    55    1
    59    30    56    1
    60    31    57    1
    61    31    58    1
@<TRIPOS>SUBSTRUCTURE
     1 ZINC000558213406        1 TEMP              0 ****  ****    0 ROOT


##########                                Name:    ZINC000186316242
##########                DOCK_Rotatable_Bonds:                   7
##########                         Heavy_Atoms:                  28
##########                    Molecular_Weight:             392.525
##########                DOCK_Rotatable_Bonds:                   7
##########                       Formal_Charge:         -0.00999981
##########                     HBond_Acceptors:                   6
##########                        HBond_Donors:                   0
##########                         Heavy_Atoms:                  28
##########                          Grid_Score:          -30.414774
##########                     Grid_vdw_energy:          -30.121502
##########                      Grid_es_energy:           -0.293272
##########           Internal_energy_repulsive:           21.976177

@<TRIPOS>MOLECULE
ZINC000186316242
 52 55 1 0 0
SMALL
USER_CHARGES


@<TRIPOS>ATOM
      1 C1        -11.6327   -4.2702   57.2725 C.3     1  ZINC000186316242   -0.1500
      2 C2        -11.3594   -2.9436   56.5609 C.3     1  ZINC000186316242    0.1000
      3 N3        -12.6211   -2.3834   56.0706 N.am    1  ZINC000186316242   -0.5900
      4 C4        -13.5162   -1.8754   56.9407 C.2     1  ZINC000186316242    0.5900
      5 O5        -14.5637   -1.4104   56.5337 O.2     1  ZINC000186316242   -0.5000
      6 C6        -13.2256   -1.8832   58.3852 C.2     1  ZINC000186316242    0.0100
      7 C7        -13.9514   -2.6172   59.2753 C.2     1  ZINC000186316242   -0.2100
      8 S8        -13.3197   -2.3711   60.8454 S.3     1  ZINC000186316242    0.2000
      9 C9        -12.0982   -1.2792   60.2036 C.2     1  ZINC000186316242    0.0700
     10 C10       -11.0687   -0.5839   61.0066 C.ar    1  ZINC000186316242    0.1900
     11 C11       -10.1959    0.3104   60.3876 C.ar    1  ZINC000186316242   -0.1500
     12 C12        -9.2382    0.9536   61.1526 C.ar    1  ZINC000186316242   -0.0700
     13 C13        -9.1841    0.6819   62.5121 C.ar    1  ZINC000186316242   -0.1600
     14 C14       -10.0812   -0.2169   63.0611 C.ar    1  ZINC000186316242    0.1100
     15 N15       -10.9863   -0.8121   62.3124 N.ar    1  ZINC000186316242   -0.4500
     16 N16       -12.2358   -1.1818   58.9169 N.2     1  ZINC000186316242   -0.3900
     17 C17       -12.9101   -2.3756   54.6343 C.3     1  ZINC000186316242    0.1400
     18 H18       -13.9337   -2.0459   54.4568 H       1  ZINC000186316242    0.1000
     19 C19       -12.6882   -3.7831   54.0348 C.3     1  ZINC000186316242   -0.1300
     20 C20       -12.0380   -3.4765   52.6622 C.3     1  ZINC000186316242    0.0400
     21 N21       -11.1578   -2.3165   52.9547 N.3     1  ZINC000186316242   -0.4900
     22 C22       -10.8273   -1.5833   51.7254 C.3     1  ZINC000186316242    0.0800
     23 C23        -9.6141   -0.7220   51.9650 C.ar    1  ZINC000186316242   -0.0700
     24 C24        -9.7555    0.6448   52.1154 C.ar    1  ZINC000186316242   -0.1000
     25 C25        -8.6426    1.4348   52.3352 C.ar    1  ZINC000186316242   -0.1200
     26 C26        -7.3884    0.8579   52.4050 C.ar    1  ZINC000186316242   -0.1200
     27 C27        -7.2471   -0.5091   52.2556 C.ar    1  ZINC000186316242   -0.1200
     28 C28        -8.3604   -1.2996   52.0400 C.ar    1  ZINC000186316242   -0.1100
     29 C29       -11.9175   -1.4597   53.8944 C.3     1  ZINC000186316242    0.0400
     30 H30       -10.6939   -4.6870   57.6373 H       1  ZINC000186316242    0.0700
     31 H31       -12.3055   -4.0998   58.1129 H       1  ZINC000186316242    0.0500
     32 H32       -12.0934   -4.9689   56.5741 H       1  ZINC000186316242    0.0400
     33 H33       -10.8988   -2.2449   57.2592 H       1  ZINC000186316242    0.1200
     34 H34       -10.6866   -3.1139   55.7204 H       1  ZINC000186316242    0.0700
     35 H35       -14.7899   -3.2517   59.0289 H       1  ZINC000186316242    0.1900
     36 H36       -10.2660    0.4982   59.3264 H       1  ZINC000186316242    0.1400
     37 H37        -8.5483    1.6512   60.7012 H       1  ZINC000186316242    0.1400
     38 H38        -8.4481    1.1672   63.1359 H       1  ZINC000186316242    0.1400
     39 H39       -10.0410   -0.4307   64.1190 H       1  ZINC000186316242    0.1600
     40 H40       -12.0124   -4.3666   54.6601 H       1  ZINC000186316242    0.0900
     41 H41       -13.6384   -4.3011   53.9044 H       1  ZINC000186316242    0.0700
     42 H42       -11.4510   -4.3272   52.3160 H       1  ZINC000186316242    0.0800
     43 H43       -12.7976   -3.2077   51.9282 H       1  ZINC000186316242    0.0400
     44 H44       -10.6172   -2.2923   50.9248 H       1  ZINC000186316242    0.0400
     45 H45       -11.6698   -0.9529   51.4406 H       1  ZINC000186316242    0.0800
     46 H46       -10.7354    1.0955   52.0608 H       1  ZINC000186316242    0.1200
     47 H47        -8.7531    2.5027   52.4520 H       1  ZINC000186316242    0.1200
     48 H48        -6.5188    1.4751   52.5760 H       1  ZINC000186316242    0.1200
     49 H49        -6.2671   -0.9598   52.3099 H       1  ZINC000186316242    0.1200
     50 H50        -8.2500   -2.3676   51.9233 H       1  ZINC000186316242    0.1200
     51 H51       -12.4587   -0.6917   53.3419 H       1  ZINC000186316242    0.0500
     52 H52       -11.2364   -0.9970   54.6085 H       1  ZINC000186316242    0.0800
@<TRIPOS>BOND
     1     1     2    1
     2     1    30    1
     3     1    31    1
     4     1    32    1
     5     2     3    1
     6     2    33    1
     7     2    34    1
     8     3     4   am
     9     3    17    1
    10     4     5    2
    11     4     6    1
    12     6    16    1
    13     6     7    2
    14     7     8    1
    15     7    35    1
    16     8     9    1
    17     9    10    1
    18     9    16    2
    19    10    15   ar
    20    10    11   ar
    21    11    12   ar
    22    11    36    1
    23    12    13   ar
    24    12    37    1
    25    13    14   ar
    26    13    38    1
    27    14    15   ar
    28    14    39    1
    29    17    18    1
    30    17    29    1
    31    17    19    1
    32    19    20    1
    33    19    40    1
    34    19    41    1
    35    20    21    1
    36    20    42    1
    37    20    43    1
    38    21    22    1
    39    21    29    1
    40    22    23    1
    41    22    44    1
    42    22    45    1
    43    23    28   ar
    44    23    24   ar
    45    24    25   ar
    46    24    46    1
    47    25    26   ar
    48    25    47    1
    49    26    27   ar
    50    26    48    1
    51    27    28   ar
    52    27    49    1
    53    28    50    1
    54    29    51    1
    55    29    52    1
@<TRIPOS>SUBSTRUCTURE
     1 ZINC000186316242        1 TEMP              0 ****  ****    0 ROOT


##########                                Name:    ZINC001757264545
##########                DOCK_Rotatable_Bonds:                  11
##########                         Heavy_Atoms:                  25
##########                    Molecular_Weight:             344.497
##########                DOCK_Rotatable_Bonds:                  11
##########                       Formal_Charge:          0.00999946
##########                     HBond_Acceptors:                   4
##########                        HBond_Donors:                   2
##########                         Heavy_Atoms:                  25
##########                          Grid_Score:          -30.413525
##########                     Grid_vdw_energy:          -27.722591
##########                      Grid_es_energy:           -2.690932
##########           Internal_energy_repulsive:            9.929304

@<TRIPOS>MOLECULE
ZINC001757264545
 57 57 1 0 0
SMALL
USER_CHARGES


@<TRIPOS>ATOM
      1 C1         -1.2476    1.5990   58.3441 C.1     1  ZINC001757264545   -0.2100
      2 C2         -0.1547    1.8753   58.6721 C.1     1  ZINC001757264545   -0.1900
      3 C3          1.2155    2.2217   59.0834 C.3     1  ZINC001757264545   -0.0100
      4 C4          2.0302    2.6269   57.8532 C.3     1  ZINC001757264545   -0.1200
      5 C5          1.4423    3.9043   57.2505 C.3     1  ZINC001757264545   -0.1200
      6 C6          2.2406    4.2950   56.0052 C.3     1  ZINC001757264545   -0.1000
      7 C7          1.6523    3.5913   54.7807 C.3     1  ZINC001757264545   -0.1400
      8 C8          0.3284    4.2191   54.4283 C.2     1  ZINC001757264545    0.5100
      9 O9          0.2199    5.4266   54.3936 O.2     1  ZINC001757264545   -0.5400
     10 N10        -0.7352    3.4387   54.1518 N.am    1  ZINC001757264545   -0.7300
     11 C11        -2.0217    4.0490   53.8076 C.3     1  ZINC001757264545    0.1400
     12 H12        -1.8495    5.0014   53.3061 H       1  ZINC001757264545    0.1000
     13 C13        -2.8325    4.2839   55.0836 C.3     1  ZINC001757264545   -0.1300
     14 C14        -4.1762    4.9213   54.7241 C.3     1  ZINC001757264545   -0.1200
     15 C15        -4.9508    3.9870   53.7923 C.3     1  ZINC001757264545   -0.1200
     16 C16        -4.1399    3.7521   52.5163 C.3     1  ZINC001757264545   -0.1300
     17 C17        -2.7963    3.1147   52.8759 C.3     1  ZINC001757264545    0.1400
     18 H18        -2.9685    2.1625   53.3774 H       1  ZINC001757264545    0.1000
     19 N19        -2.0200    2.8899   51.6541 N.am    1  ZINC001757264545   -0.7200
     20 C20        -2.2903    1.8276   50.8698 C.2     1  ZINC001757264545    0.6400
     21 O21        -3.1797    1.0566   51.1757 O.2     1  ZINC001757264545   -0.5200
     22 C22        -1.5303    1.6068   49.6763 C.1     1  ZINC001757264545   -0.2300
     23 C23        -0.9072    1.4258   48.6979 C.1     1  ZINC001757264545   -0.0500
     24 C24        -0.1259    1.1988   47.4712 C.3     1  ZINC001757264545    0.0300
     25 C25        -0.2284    2.4284   46.5665 C.3     1  ZINC001757264545   -0.1400
     26 C26         1.3395    0.9558   47.8375 C.3     1  ZINC001757264545   -0.1400
     27 C27        -0.6771   -0.0237   46.7345 C.3     1  ZINC001757264545   -0.1400
     28 H28        -2.2250    1.3520   58.0508 H       1  ZINC001757264545    0.2200
     29 H29         1.6811    1.3587   59.5593 H       1  ZINC001757264545    0.0900
     30 H30         1.1842    3.0525   59.7883 H       1  ZINC001757264545    0.0900
     31 H31         1.9944    1.8266   57.1141 H       1  ZINC001757264545    0.0700
     32 H32         3.0648    2.8058   58.1455 H       1  ZINC001757264545    0.0700
     33 H33         1.4950    4.7096   57.9833 H       1  ZINC001757264545    0.0700
     34 H34         0.4019    3.7310   56.9756 H       1  ZINC001757264545    0.0700
     35 H35         3.2810    3.9952   56.1317 H       1  ZINC001757264545    0.0700
     36 H36         2.1883    5.3745   55.8640 H       1  ZINC001757264545    0.0700
     37 H37         1.5052    2.5347   55.0044 H       1  ZINC001757264545    0.0900
     38 H38         2.3378    3.6925   53.9393 H       1  ZINC001757264545    0.0900
     39 H39        -0.6487    2.4730   54.1808 H       1  ZINC001757264545    0.4000
     40 H40        -3.0047    3.3316   55.5851 H       1  ZINC001757264545    0.0700
     41 H41        -2.2807    4.9495   55.7474 H       1  ZINC001757264545    0.0800
     42 H42        -4.7538    5.0886   55.6331 H       1  ZINC001757264545    0.0700
     43 H43        -4.0040    5.8736   54.2225 H       1  ZINC001757264545    0.0700
     44 H44        -5.9080    4.4411   53.5363 H       1  ZINC001757264545    0.0700
     45 H45        -5.1230    3.0347   54.2939 H       1  ZINC001757264545    0.0700
     46 H46        -3.9677    4.7045   52.0148 H       1  ZINC001757264545    0.0700
     47 H47        -4.6918    3.0865   51.8526 H       1  ZINC001757264545    0.0800
     48 H48        -1.3113    3.5054   51.4095 H       1  ZINC001757264545    0.4000
     49 H49         0.1642    3.2993   47.0913 H       1  ZINC001757264545    0.0600
     50 H50         0.3501    2.2603   45.6581 H       1  ZINC001757264545    0.0700
     51 H51        -1.2725    2.6015   46.3056 H       1  ZINC001757264545    0.0600
     52 H52         1.4125    0.0798   48.4820 H       1  ZINC001757264545    0.0600
     53 H53         1.9180    0.7876   46.9291 H       1  ZINC001757264545    0.0700
     54 H54         1.7321    1.8267   48.3623 H       1  ZINC001757264545    0.0600
     55 H55        -1.7211    0.1494   46.4736 H       1  ZINC001757264545    0.0600
     56 H56        -0.0985   -0.1919   45.8261 H       1  ZINC001757264545    0.0700
     57 H57        -0.6041   -0.8997   47.3791 H       1  ZINC001757264545    0.0600
@<TRIPOS>BOND
     1     1     2    3
     2     1    28    1
     3     2     3    1
     4     3     4    1
     5     3    29    1
     6     3    30    1
     7     4     5    1
     8     4    31    1
     9     4    32    1
    10     5     6    1
    11     5    33    1
    12     5    34    1
    13     6     7    1
    14     6    35    1
    15     6    36    1
    16     7     8    1
    17     7    37    1
    18     7    38    1
    19     8     9    2
    20     8    10   am
    21    10    11    1
    22    10    39    1
    23    11    12    1
    24    11    17    1
    25    11    13    1
    26    13    14    1
    27    13    40    1
    28    13    41    1
    29    14    15    1
    30    14    42    1
    31    14    43    1
    32    15    16    1
    33    15    44    1
    34    15    45    1
    35    16    17    1
    36    16    46    1
    37    16    47    1
    38    17    18    1
    39    17    19    1
    40    19    20   am
    41    19    48    1
    42    20    21    2
    43    20    22    1
    44    22    23    3
    45    23    24    1
    46    24    25    1
    47    24    26    1
    48    24    27    1
    49    25    49    1
    50    25    50    1
    51    25    51    1
    52    26    52    1
    53    26    53    1
    54    26    54    1
    55    27    55    1
    56    27    56    1
    57    27    57    1
@<TRIPOS>SUBSTRUCTURE
     1 ZINC001757264545        1 TEMP              0 ****  ****    0 ROOT


##########                                Name:    ZINC000470948647
##########                DOCK_Rotatable_Bonds:                   6
##########                         Heavy_Atoms:                  29
##########                    Molecular_Weight:             412.556
##########                DOCK_Rotatable_Bonds:                   6
##########                       Formal_Charge:           0.0100001
##########                     HBond_Acceptors:                   7
##########                        HBond_Donors:                   1
##########                         Heavy_Atoms:                  29
##########                          Grid_Score:          -30.406813
##########                     Grid_vdw_energy:          -29.860586
##########                      Grid_es_energy:           -0.546227
##########           Internal_energy_repulsive:           22.257977

@<TRIPOS>MOLECULE
ZINC000470948647
 57 60 1 0 0
SMALL
USER_CHARGES


@<TRIPOS>ATOM
      1 C1         -9.4130   -0.0486   61.0741 C.3     1  ZINC000470948647   -0.1100
      2 C2         -9.7925   -0.4998   59.6872 C.ar    1  ZINC000470948647   -0.1000
      3 C3        -10.3224   -1.7620   59.4932 C.ar    1  ZINC000470948647   -0.1100
      4 C4        -10.6713   -2.1785   58.2232 C.ar    1  ZINC000470948647   -0.1100
      5 C5        -10.4897   -1.3279   57.1409 C.ar    1  ZINC000470948647    0.1400
      6 N6        -10.8425   -1.7466   55.8532 N.am    1  ZINC000470948647   -0.6700
      7 C7        -12.0399   -1.4045   55.3378 C.2     1  ZINC000470948647    0.5100
      8 O8        -12.8116   -0.7336   55.9901 O.2     1  ZINC000470948647   -0.4800
      9 C9        -12.4199   -1.8554   53.9509 C.3     1  ZINC000470948647    0.1200
     10 H10       -13.4292   -1.5056   53.7340 H       1  ZINC000470948647    0.1200
     11 C11       -11.4440   -1.2175   52.9362 C.3     1  ZINC000470948647   -0.0700
     12 S12       -10.2459   -2.5917   52.6736 S.3     1  ZINC000470948647   -0.2500
     13 C13       -11.5102   -3.9081   52.9121 C.3     1  ZINC000470948647    0.1600
     14 N14       -12.4106   -3.3098   53.9129 N.am    1  ZINC000470948647   -0.6000
     15 C15       -13.1751   -4.0558   54.7348 C.2     1  ZINC000470948647    0.6300
     16 O16       -13.1362   -5.2690   54.6667 O.2     1  ZINC000470948647   -0.5100
     17 C17       -14.0603   -3.3995   55.7184 C.2     1  ZINC000470948647   -0.0100
     18 N18       -13.9615   -3.4681   57.0310 N.2     1  ZINC000470948647   -0.2700
     19 N19       -14.8951   -2.7774   57.5801 N.pl3   1  ZINC000470948647   -0.2700
     20 C20       -15.0890   -2.6297   59.0248 C.3     1  ZINC000470948647    0.1500
     21 C21       -13.7558   -2.2715   59.6844 C.3     1  ZINC000470948647   -0.1300
     22 C22       -13.9584   -2.1171   61.1930 C.3     1  ZINC000470948647   -0.1200
     23 C23       -14.9745   -1.0050   61.4600 C.3     1  ZINC000470948647   -0.1300
     24 C24       -16.3078   -1.3632   60.8005 C.3     1  ZINC000470948647   -0.1200
     25 C25       -16.1053   -1.5175   59.2918 C.3     1  ZINC000470948647   -0.1300
     26 C26       -15.6720   -2.2070   56.6343 C.2     1  ZINC000470948647   -0.0100
     27 C27       -15.1718   -2.5724   55.4307 C.2     1  ZINC000470948647   -0.1700
     28 C28        -9.9575   -0.0603   57.3391 C.ar    1  ZINC000470948647   -0.1100
     29 C29        -9.7593    0.8662   56.1673 C.3     1  ZINC000470948647   -0.1100
     30 C30        -9.6154    0.3518   58.6119 C.ar    1  ZINC000470948647   -0.1000
     31 H31       -10.2695    0.4322   61.5469 H       1  ZINC000470948647    0.0700
     32 H32        -9.1082   -0.9115   61.6662 H       1  ZINC000470948647    0.0700
     33 H33        -8.5869    0.6599   61.0124 H       1  ZINC000470948647    0.0700
     34 H34       -10.4634   -2.4231   60.3354 H       1  ZINC000470948647    0.1200
     35 H35       -11.0845   -3.1648   58.0722 H       1  ZINC000470948647    0.1400
     36 H36       -10.2253   -2.2831   55.3314 H       1  ZINC000470948647    0.4100
     37 H37       -11.9559   -0.9616   52.0084 H       1  ZINC000470948647    0.1200
     38 H38       -10.9509   -0.3442   53.3630 H       1  ZINC000470948647    0.1200
     39 H39       -12.0417   -4.1067   51.9814 H       1  ZINC000470948647    0.1000
     40 H40       -11.0523   -4.8185   53.2991 H       1  ZINC000470948647    0.1400
     41 H41       -15.4592   -3.5672   59.4395 H       1  ZINC000470948647    0.1100
     42 H42       -13.0318   -3.0638   59.4941 H       1  ZINC000470948647    0.0800
     43 H43       -13.3856   -1.3338   59.2696 H       1  ZINC000470948647    0.0800
     44 H44       -14.3285   -3.0547   61.6077 H       1  ZINC000470948647    0.0700
     45 H45       -13.0085   -1.8619   61.6629 H       1  ZINC000470948647    0.0800
     46 H46       -15.1189   -0.8950   62.5348 H       1  ZINC000470948647    0.0700
     47 H47       -14.6044   -0.0673   61.0453 H       1  ZINC000470948647    0.0700
     48 H48       -16.6779   -2.3008   61.2151 H       1  ZINC000470948647    0.0700
     49 H49       -17.0317   -0.5708   60.9907 H       1  ZINC000470948647    0.0700
     50 H50       -15.7351   -0.5799   58.8770 H       1  ZINC000470948647    0.0700
     51 H51       -17.0551   -1.7727   58.8218 H       1  ZINC000470948647    0.0700
     52 H52       -16.5296   -1.5735   56.8062 H       1  ZINC000470948647    0.1800
     53 H53       -15.5465   -2.2966   54.4561 H       1  ZINC000470948647    0.1600
     54 H54       -10.6580    1.4656   56.0219 H       1  ZINC000470948647    0.0700
     55 H55        -8.9121    1.5235   56.3631 H       1  ZINC000470948647    0.0700
     56 H56        -9.5644    0.2799   55.2694 H       1  ZINC000470948647    0.0600
     57 H57        -9.2018    1.3374   58.7667 H       1  ZINC000470948647    0.1300
@<TRIPOS>BOND
     1     1     2    1
     2     1    31    1
     3     1    32    1
     4     1    33    1
     5     2    30   ar
     6     2     3   ar
     7     3     4   ar
     8     3    34    1
     9     4     5   ar
    10     4    35    1
    11     5     6    1
    12     5    28   ar
    13     6     7   am
    14     6    36    1
    15     7     8    2
    16     7     9    1
    17     9    10    1
    18     9    14    1
    19     9    11    1
    20    11    12    1
    21    11    37    1
    22    11    38    1
    23    12    13    1
    24    13    14    1
    25    13    39    1
    26    13    40    1
    27    14    15   am
    28    15    16    2
    29    15    17    1
    30    17    27    1
    31    17    18    2
    32    18    19    1
    33    19    20    1
    34    19    26    1
    35    20    25    1
    36    20    21    1
    37    20    41    1
    38    21    22    1
    39    21    42    1
    40    21    43    1
    41    22    23    1
    42    22    44    1
    43    22    45    1
    44    23    24    1
    45    23    46    1
    46    23    47    1
    47    24    25    1
    48    24    48    1
    49    24    49    1
    50    25    50    1
    51    25    51    1
    52    26    27    2
    53    26    52    1
    54    27    53    1
    55    28    29    1
    56    28    30   ar
    57    29    54    1
    58    29    55    1
    59    29    56    1
    60    30    57    1
@<TRIPOS>SUBSTRUCTURE
     1 ZINC000470948647        1 TEMP              0 ****  ****    0 ROOT


##########                                Name:    ZINC000022858610
##########                DOCK_Rotatable_Bonds:                   9
##########                         Heavy_Atoms:                  26
##########                    Molecular_Weight:             369.343
##########                DOCK_Rotatable_Bonds:                   9
##########                       Formal_Charge:          0.00999956
##########                     HBond_Acceptors:                   9
##########                        HBond_Donors:                   2
##########                         Heavy_Atoms:                  26
##########                          Grid_Score:          -30.398687
##########                     Grid_vdw_energy:          -30.100615
##########                      Grid_es_energy:           -0.298072
##########           Internal_energy_repulsive:           16.706228

@<TRIPOS>MOLECULE
ZINC000022858610
 44 45 1 0 0
SMALL
USER_CHARGES


@<TRIPOS>ATOM
      1 C1         -0.5751    3.5388   49.0066 C.3     1  <0>         0.0100
      2 N2         -1.4370    2.3528   48.9147 N.3     1  <0>        -0.5300
      3 C3         -1.0218    1.4849   47.8046 C.3     1  <0>         0.0200
      4 C4         -1.4520    1.6132   50.1838 C.3     1  <0>         0.1500
      5 H5         -1.7377    0.5780   49.9978 H       1  <0>         0.1200
      6 C6         -2.4605    2.2571   51.1374 C.3     1  <0>         0.1300
      7 N7         -3.7303    1.5297   51.0691 N.am    1  <0>        -0.6800
      8 C8         -4.7469    1.8705   51.8857 C.2     1  <0>         0.5100
      9 O9         -4.6110    2.7809   52.6765 O.2     1  <0>        -0.5100
     10 C10        -6.0408    1.1277   51.8174 C.2     1  <0>         0.5200
     11 O11        -6.4503    0.7188   50.7505 O.2     1  <0>        -0.4900
     12 N12        -6.7539    0.9114   52.9405 N.am    1  <0>        -0.6500
     13 C13        -7.9644    0.2165   52.8765 C.ar    1  <0>         0.1900
     14 C14        -7.9959   -1.0834   52.3878 C.ar    1  <0>        -0.1200
     15 C15        -9.1943   -1.7673   52.3258 C.ar    1  <0>        -0.0700
     16 C16       -10.3617   -1.1595   52.7497 C.ar    1  <0>        -0.1300
     17 C17       -10.3340    0.1349   53.2364 C.ar    1  <0>        -0.0500
     18 C18        -9.1386    0.8223   53.3069 C.ar    1  <0>        -0.2100
     19 C19        -9.1094    2.2325   53.8373 C.3     1  <0>         0.5100
     20 F20        -8.3646    2.2701   55.0210 F       1  <0>        -0.1700
     21 F21        -8.5204    3.0754   52.8888 F       1  <0>        -0.1800
     22 F22       -10.4160    2.6611   54.0948 F       1  <0>        -0.1700
     23 C23        -0.0790    1.6518   50.8039 C.2     1  <0>        -0.0500
     24 C24         0.3521    2.5525   51.7051 C.2     1  <0>        -0.1900
     25 C25         1.6905    2.2162   52.0123 C.2     1  <0>        -0.2100
     26 C26         1.9973    1.1300   51.2805 C.2     1  <0>        -0.0400
     27 O27         0.9198    0.7891   50.5548 O.3     1  <0>        -0.1700
     28 H28        -0.7258    4.1664   48.1283 H       1  <0>         0.0700
     29 H29        -0.8280    4.1031   49.9041 H       1  <0>         0.0700
     30 H30         0.4682    3.2268   49.0555 H       1  <0>         0.0500
     31 H31         0.0061    1.1585   47.9634 H       1  <0>         0.0300
     32 H32        -1.6765    0.6146   47.7593 H       1  <0>         0.0700
     33 H33        -1.0867    2.0377   46.8674 H       1  <0>         0.0800
     34 H34        -2.0738    2.2182   52.1558 H       1  <0>         0.0900
     35 H35        -2.6210    3.2960   50.8492 H       1  <0>         0.0800
     36 H36        -3.8394    0.8028   50.4362 H       1  <0>         0.4200
     37 H37        -6.4267    1.2382   53.7931 H       1  <0>         0.4300
     38 H38        -7.0845   -1.5586   52.0563 H       1  <0>         0.1500
     39 H39        -9.2196   -2.7779   51.9457 H       1  <0>         0.1400
     40 H40       -11.2974   -1.6966   52.7002 H       1  <0>         0.1400
     41 H41       -11.2478    0.6069   53.5659 H       1  <0>         0.1500
     42 H42        -0.2151    3.3752   52.1148 H       1  <0>         0.1500
     43 H43         2.3419    2.7325   52.7020 H       1  <0>         0.1500
     44 H44         2.9475    0.6167   51.2798 H       1  <0>         0.2000
@<TRIPOS>BOND
     1     1     2    1
     2     1    28    1
     3     1    29    1
     4     1    30    1
     5     2     3    1
     6     2     4    1
     7     3    31    1
     8     3    32    1
     9     3    33    1
    10     4     5    1
    11     4     6    1
    12     4    23    1
    13     6     7    1
    14     6    34    1
    15     6    35    1
    16     7     8   am
    17     7    36    1
    18     8     9    2
    19     8    10    1
    20    10    11    2
    21    10    12   am
    22    12    13    1
    23    12    37    1
    24    13    18   ar
    25    13    14   ar
    26    14    15   ar
    27    14    38    1
    28    15    16   ar
    29    15    39    1
    30    16    17   ar
    31    16    40    1
    32    17    18   ar
    33    17    41    1
    34    18    19    1
    35    19    20    1
    36    19    21    1
    37    19    22    1
    38    23    27    1
    39    23    24    2
    40    24    25    1
    41    24    42    1
    42    25    26    2
    43    25    43    1
    44    26    27    1
    45    26    44    1
@<TRIPOS>SUBSTRUCTURE
     1 <0>         1 TEMP              0 ****  ****    0 ROOT


##########                                Name:    ZINC000573150059
##########                DOCK_Rotatable_Bonds:                   7
##########                         Heavy_Atoms:                  23
##########                    Molecular_Weight:             378.269
##########                DOCK_Rotatable_Bonds:                   7
##########                       Formal_Charge:        -2.98023e-07
##########                     HBond_Acceptors:                   5
##########                        HBond_Donors:                   2
##########                         Heavy_Atoms:                  23
##########                          Grid_Score:          -30.393494
##########                     Grid_vdw_energy:          -30.354349
##########                      Grid_es_energy:           -0.039144
##########           Internal_energy_repulsive:            6.261892

@<TRIPOS>MOLECULE
ZINC000573150059
 43 44 1 0 0
SMALL
USER_CHARGES


@<TRIPOS>ATOM
      1 C1         -8.3482   -0.5585   59.1618 C.3     1  ZINC000573150059    0.0300
      2 O2         -9.2070    0.3056   59.9086 O.3     1  ZINC000573150059   -0.3600
      3 C3         -9.7174   -0.2779   61.1090 C.3     1  ZINC000573150059    0.0700
      4 H4         -8.9193   -0.8177   61.6185 H       1  ZINC000573150059    0.0900
      5 C5        -10.2526    0.8248   62.0247 C.3     1  ZINC000573150059   -0.1700
      6 C6        -10.8322   -1.2332   60.7687 C.2     1  ZINC000573150059    0.5100
      7 O7        -10.5894   -2.4070   60.5829 O.2     1  ZINC000573150059   -0.4900
      8 N8        -12.0988   -0.7833   60.6706 N.am    1  ZINC000573150059   -0.6700
      9 C9        -13.1338   -1.6704   60.3546 C.ar    1  ZINC000573150059    0.1900
     10 C10       -14.0278   -2.0743   61.3382 C.ar    1  ZINC000573150059   -0.2000
     11 C11       -15.0503   -2.9502   61.0272 C.ar    1  ZINC000573150059   -0.0500
     12 C12       -15.1874   -3.4267   59.7379 C.ar    1  ZINC000573150059   -0.2200
     13 C13       -14.2965   -3.0262   58.7491 C.ar    1  ZINC000573150059    0.2400
     14 N14       -14.4359   -3.5081   57.4457 N.pl3   1  ZINC000573150059   -0.7300
     15 C15       -13.4331   -4.4206   56.8908 C.3     1  ZINC000573150059    0.2000
     16 H16       -12.6115   -4.5312   57.5985 H       1  ZINC000573150059    0.1000
     17 C17       -14.0729   -5.7866   56.6345 C.3     1  ZINC000573150059   -0.1700
     18 C18       -12.9075   -3.8609   55.5941 C.ar    1  ZINC000573150059    0.1400
     19 C19       -13.7945   -3.4867   54.6027 C.ar    1  ZINC000573150059   -0.1600
     20 C20       -13.3011   -2.9724   53.4133 C.ar    1  ZINC000573150059   -0.0400
     21 C21       -11.9270   -2.8535   53.2653 C.ar    1  ZINC000573150059   -0.1500
     22 Br22      -11.1924   -2.1588   51.6672 Br      1  ZINC000573150059   -0.0300
     23 C23       -11.1011   -3.2491   54.3019 C.ar    1  ZINC000573150059    0.1400
     24 N24       -11.6067   -3.7292   55.4210 N.ar    1  ZINC000573150059   -0.4700
     25 C25       -13.2716   -2.1430   59.0573 C.ar    1  ZINC000573150059   -0.1900
     26 H26        -7.4905   -0.8363   59.7745 H       1  ZINC000573150059    0.0500
     27 H27        -8.8960   -1.4562   58.8754 H       1  ZINC000573150059    0.0400
     28 H28        -8.0029   -0.0422   58.2661 H       1  ZINC000573150059    0.0900
     29 H29       -11.0508    1.3647   61.5151 H       1  ZINC000573150059    0.0700
     30 H30       -10.6419    0.3798   62.9403 H       1  ZINC000573150059    0.0700
     31 H31        -9.4464    1.5158   62.2709 H       1  ZINC000573150059    0.0700
     32 H32       -12.2930    0.1554   60.8192 H       1  ZINC000573150059    0.4100
     33 H33       -13.9233   -1.7035   62.3472 H       1  ZINC000573150059    0.1200
     34 H34       -15.7436   -3.2631   61.7939 H       1  ZINC000573150059    0.1300
     35 H35       -15.9874   -4.1114   59.4981 H       1  ZINC000573150059    0.1200
     36 H36       -15.1968   -3.2385   56.9077 H       1  ZINC000573150059    0.4100
     37 H37       -14.8945   -5.6760   55.9269 H       1  ZINC000573150059    0.0600
     38 H38       -13.3268   -6.4655   56.2217 H       1  ZINC000573150059    0.0700
     39 H39       -14.4532   -6.1914   57.5725 H       1  ZINC000573150059    0.0700
     40 H40       -14.8586   -3.5937   54.7523 H       1  ZINC000573150059    0.1500
     41 H41       -13.9706   -2.6720   52.6209 H       1  ZINC000573150059    0.1500
     42 H42       -10.0301   -3.1602   54.1949 H       1  ZINC000573150059    0.1700
     43 H43       -12.5782   -1.8298   58.2908 H       1  ZINC000573150059    0.1400
@<TRIPOS>BOND
     1     1     2    1
     2     1    26    1
     3     1    27    1
     4     1    28    1
     5     2     3    1
     6     3     4    1
     7     3     5    1
     8     3     6    1
     9     5    29    1
    10     5    30    1
    11     5    31    1
    12     6     7    2
    13     6     8   am
    14     8     9    1
    15     8    32    1
    16     9    25   ar
    17     9    10   ar
    18    10    11   ar
    19    10    33    1
    20    11    12   ar
    21    11    34    1
    22    12    13   ar
    23    12    35    1
    24    13    14    1
    25    13    25   ar
    26    14    15    1
    27    14    36    1
    28    15    16    1
    29    15    17    1
    30    15    18    1
    31    17    37    1
    32    17    38    1
    33    17    39    1
    34    18    24   ar
    35    18    19   ar
    36    19    20   ar
    37    19    40    1
    38    20    21   ar
    39    20    41    1
    40    21    22    1
    41    21    23   ar
    42    23    24   ar
    43    23    42    1
    44    25    43    1
@<TRIPOS>SUBSTRUCTURE
     1 ZINC000573150059        1 TEMP              0 ****  ****    0 ROOT


##########                                Name:    ZINC001139743874
##########                DOCK_Rotatable_Bonds:                   5
##########                         Heavy_Atoms:                  28
##########                    Molecular_Weight:             382.506
##########                DOCK_Rotatable_Bonds:                   5
##########                       Formal_Charge:           0.0199992
##########                     HBond_Acceptors:                   6
##########                        HBond_Donors:                   0
##########                         Heavy_Atoms:                  28
##########                          Grid_Score:          -30.350477
##########                     Grid_vdw_energy:          -30.436537
##########                      Grid_es_energy:            0.086060
##########           Internal_energy_repulsive:           14.608856

@<TRIPOS>MOLECULE
ZINC001139743874
 58 61 1 0 0
SMALL
USER_CHARGES


@<TRIPOS>ATOM
      1 C1          5.0778    1.3113   44.6222 C.3     1  ZINC001139743874   -0.1800
      2 C2          3.9472    0.4410   45.1747 C.3     1  ZINC001139743874    0.1400
      3 C3          3.5402   -0.5940   44.1239 C.3     1  ZINC001139743874   -0.1800
      4 C4          4.4267   -0.2764   46.4381 C.3     1  ZINC001139743874   -0.1400
      5 O5          2.8055    1.2780   45.4971 O.3     1  ZINC001139743874   -0.3600
      6 C6          2.9187    2.0779   46.5742 C.2     1  ZINC001139743874    0.6500
      7 O7          3.7235    2.9883   46.5728 O.2     1  ZINC001139743874   -0.5700
      8 N8          2.1395    1.8688   47.6538 N.am    1  ZINC001139743874   -0.5900
      9 C9          1.1882    0.8032   47.6724 C.3     1  ZINC001139743874    0.1000
     10 C10        -0.2028    1.1288   47.0577 C.3     1  ZINC001139743874   -0.1300
     11 C11        -0.6234    2.5686   47.4717 C.3     1  ZINC001139743874   -0.0900
     12 C12        -0.2323    2.8785   48.8793 C.3     1  ZINC001139743874   -0.0800
     13 C13        -1.3173    3.5275   49.7468 C.3     1  ZINC001139743874    0.0100
     14 N14        -1.6436    2.1504   50.1830 N.3     1  ZINC001139743874   -0.4700
     15 C15        -1.8852    2.1004   51.6311 C.3     1  ZINC001139743874    0.0600
     16 C16        -3.3673    2.0154   51.8904 C.ar    1  ZINC001139743874   -0.1200
     17 C17        -4.0612    3.1367   52.3410 C.ar    1  ZINC001139743874    0.1500
     18 N18        -5.3504    3.0987   52.5766 N.ar    1  ZINC001139743874   -0.4600
     19 C19        -6.0560    1.9802   52.3939 C.ar    1  ZINC001139743874    0.0800
     20 C20        -7.4419    1.9426   52.6476 C.ar    1  ZINC001139743874   -0.0400
     21 C21        -8.1046    0.7675   52.4403 C.ar    1  ZINC001139743874   -0.1600
     22 C22        -7.4105   -0.3542   51.9897 C.ar    1  ZINC001139743874    0.1300
     23 N23        -6.1215   -0.3163   51.7546 N.ar    1  ZINC001139743874   -0.4700
     24 C24        -5.4157    0.8024   51.9372 C.ar    1  ZINC001139743874    0.0800
     25 C25        -4.0312    0.8414   51.6785 C.ar    1  ZINC001139743874   -0.0400
     26 C26        -0.2710    1.6992   49.8581 C.3     1  ZINC001139743874    0.0000
     27 C27         1.0965    3.6405   48.8875 C.3     1  ZINC001139743874   -0.1300
     28 C28         2.2560    2.7442   48.8627 C.3     1  ZINC001139743874    0.1400
     29 H29         4.7363    1.8223   43.7220 H       1  ZINC001139743874    0.0900
     30 H30         5.3677    2.0485   45.3708 H       1  ZINC001139743874    0.0600
     31 H31         5.9349    0.6829   44.3801 H       1  ZINC001139743874    0.0700
     32 H32         4.3973   -1.2224   43.8818 H       1  ZINC001139743874    0.0700
     33 H33         2.7348   -1.2141   44.5175 H       1  ZINC001139743874    0.0600
     34 H34         3.1987   -0.0830   43.2237 H       1  ZINC001139743874    0.0900
     35 H35         4.7166    0.4609   47.1867 H       1  ZINC001139743874    0.0700
     36 H36         3.6212   -0.8964   46.8317 H       1  ZINC001139743874    0.0700
     37 H37         5.2838   -0.9048   46.1961 H       1  ZINC001139743874    0.0800
     38 H38         1.6119   -0.0415   47.1292 H       1  ZINC001139743874    0.0700
     39 H39         1.0402    0.4965   48.7078 H       1  ZINC001139743874    0.0900
     40 H40        -0.1443    1.0649   45.9711 H       1  ZINC001139743874    0.0700
     41 H41        -0.9393    0.4145   47.4256 H       1  ZINC001139743874    0.0800
     42 H42        -0.1436    3.2843   46.8041 H       1  ZINC001139743874    0.0600
     43 H43        -1.7049    2.6643   47.3745 H       1  ZINC001139743874    0.0700
     44 H44        -0.9242    4.1596   50.5430 H       1  ZINC001139743874    0.0700
     45 H45        -2.1107    4.0068   49.1733 H       1  ZINC001139743874    0.0900
     46 H46        -1.3920    1.2241   52.0518 H       1  ZINC001139743874    0.0600
     47 H47        -1.4859    3.0010   52.0975 H       1  ZINC001139743874    0.0900
     48 H48        -3.5237    4.0599   52.5002 H       1  ZINC001139743874    0.1700
     49 H49        -7.9655    2.8202   52.9970 H       1  ZINC001139743874    0.1500
     50 H50        -9.1669    0.7067   52.6256 H       1  ZINC001139743874    0.1500
     51 H51        -7.9479   -1.2775   51.8308 H       1  ZINC001139743874    0.1700
     52 H52        -3.5084   -0.0353   51.3257 H       1  ZINC001139743874    0.1400
     53 H53        -0.2319    0.7237   49.3733 H       1  ZINC001139743874    0.1000
     54 H54         0.4304    1.7925   50.6871 H       1  ZINC001139743874    0.0700
     55 H55         1.1344    4.2932   48.0154 H       1  ZINC001139743874    0.0700
     56 H56         1.1458    4.2540   49.7872 H       1  ZINC001139743874    0.0800
     57 H57         2.2669    2.1327   49.7649 H       1  ZINC001139743874    0.0800
     58 H58         3.1726    3.3311   48.8051 H       1  ZINC001139743874    0.1000
@<TRIPOS>BOND
     1     1     2    1
     2     1    29    1
     3     1    30    1
     4     1    31    1
     5     2     3    1
     6     2     4    1
     7     2     5    1
     8     3    32    1
     9     3    33    1
    10     3    34    1
    11     4    35    1
    12     4    36    1
    13     4    37    1
    14     5     6    1
    15     6     7    2
    16     6     8   am
    17     8    28    1
    18     8     9    1
    19     9    10    1
    20     9    38    1
    21     9    39    1
    22    10    11    1
    23    10    40    1
    24    10    41    1
    25    11    12    1
    26    11    42    1
    27    11    43    1
    28    12    26    1
    29    12    13    1
    30    12    27    1
    31    13    14    1
    32    13    44    1
    33    13    45    1
    34    14    15    1
    35    14    26    1
    36    15    16    1
    37    15    46    1
    38    15    47    1
    39    16    25   ar
    40    16    17   ar
    41    17    18   ar
    42    17    48    1
    43    18    19   ar
    44    19    24   ar
    45    19    20   ar
    46    20    21   ar
    47    20    49    1
    48    21    22   ar
    49    21    50    1
    50    22    23   ar
    51    22    51    1
    52    23    24   ar
    53    24    25   ar
    54    25    52    1
    55    26    53    1
    56    26    54    1
    57    27    28    1
    58    27    55    1
    59    27    56    1
    60    28    57    1
    61    28    58    1
@<TRIPOS>SUBSTRUCTURE
     1 ZINC001139743874        1 TEMP              0 ****  ****    0 ROOT


##########                                Name:    ZINC000466160459
##########                DOCK_Rotatable_Bonds:                   9
##########                         Heavy_Atoms:                  30
##########                    Molecular_Weight:             420.512
##########                DOCK_Rotatable_Bonds:                   9
##########                       Formal_Charge:          -0.0300007
##########                     HBond_Acceptors:                  10
##########                        HBond_Donors:                   2
##########                         Heavy_Atoms:                  30
##########                          Grid_Score:          -30.342882
##########                     Grid_vdw_energy:          -28.647001
##########                      Grid_es_energy:           -1.695881
##########           Internal_energy_repulsive:           96.332214

@<TRIPOS>MOLECULE
ZINC000466160459
 62 64 1 0 0
SMALL
USER_CHARGES


@<TRIPOS>ATOM
      1 C1         -7.6942   -0.7728   51.8608 C.3     1  ZINC000466160459    0.0300
      2 O2         -7.4142    0.6268   51.7923 O.3     1  ZINC000466160459   -0.3900
      3 C3         -6.6093    1.1119   52.8688 C.3     1  ZINC000466160459    0.0500
      4 C4         -6.3718    2.6130   52.6916 C.3     1  ZINC000466160459    0.1200
      5 N5         -5.5689    3.1155   53.8092 N.am    1  ZINC000466160459   -0.7300
      6 C6         -4.2249    3.1447   53.7139 C.2     1  ZINC000466160459    0.5200
      7 O7         -3.6801    2.7563   52.7023 O.2     1  ZINC000466160459   -0.5200
      8 C8         -3.3988    3.6600   54.8643 C.3     1  ZINC000466160459   -0.1300
      9 H9         -3.2805    2.8726   55.6086 H       1  ZINC000466160459    0.1100
     10 C10        -4.1013    4.8621   55.4995 C.3     1  ZINC000466160459   -0.1000
     11 C11        -4.2981    5.9552   54.4467 C.3     1  ZINC000466160459   -0.1500
     12 C12        -2.9305    6.4123   53.9293 C.3     1  ZINC000466160459    0.1600
     13 H13        -2.3751    6.8892   54.7369 H       1  ZINC000466160459    0.0700
     14 C14        -3.1223    7.4062   52.7820 C.3     1  ZINC000466160459   -0.1400
     15 N15        -2.1901    5.2378   53.4487 N.am    1  ZINC000466160459   -0.6200
     16 C16        -1.6752    5.2130   52.2034 C.2     1  ZINC000466160459    0.7100
     17 O17        -1.8214    6.1685   51.4659 O.2     1  ZINC000466160459   -0.5500
     18 N18        -0.9981    4.1290   51.7756 N.am    1  ZINC000466160459   -0.7300
     19 C19        -0.4385    4.1020   50.4220 C.3     1  ZINC000466160459    0.1600
     20 H20        -0.0308    5.0833   50.1792 H       1  ZINC000466160459    0.1300
     21 C21        -1.5423    3.7484   49.4223 C.3     1  ZINC000466160459   -0.1400
     22 C22        -1.9063    2.2700   49.6049 C.3     1  ZINC000466160459   -0.1400
     23 C23        -0.7181    1.4149   49.1627 C.3     1  ZINC000466160459    0.1100
     24 N24         0.5070    1.8722   49.8063 N.am    1  ZINC000466160459   -0.5200
     25 C25         1.5950    0.9897   49.8499 C.2     1  ZINC000466160459    0.2800
     26 N26         1.9557    0.2611   50.8800 N.2     1  ZINC000466160459   -0.2600
     27 N27         3.0867   -0.4806   50.5156 N.pl3   1  ZINC000466160459   -0.3800
     28 C28         3.8102   -1.4234   51.3723 C.3     1  ZINC000466160459    0.1000
     29 C29         3.3932   -0.1751   49.2371 C.2     1  ZINC000466160459    0.0700
     30 C30         2.4858    0.7260   48.7971 C.2     1  ZINC000466160459   -0.2900
     31 C31         0.6566    3.0764   50.3554 C.2     1  ZINC000466160459    0.4900
     32 O32         1.7368    3.3620   50.8272 O.2     1  ZINC000466160459   -0.4700
     33 C33        -2.0208    4.0903   54.3517 C.3     1  ZINC000466160459    0.1200
     34 H34        -8.3093   -1.0625   51.0089 H       1  ZINC000466160459    0.0900
     35 H35        -6.7587   -1.3319   51.8402 H       1  ZINC000466160459    0.0400
     36 H36        -8.2280   -0.9917   52.7856 H       1  ZINC000466160459    0.0400
     37 H37        -7.1216    0.9342   53.8143 H       1  ZINC000466160459    0.0600
     38 H38        -5.6522    0.5903   52.8705 H       1  ZINC000466160459    0.0700
     39 H39        -5.8418    2.7890   51.7556 H       1  ZINC000466160459    0.0800
     40 H40        -7.3297    3.1324   52.6701 H       1  ZINC000466160459    0.0800
     41 H41        -6.0046    3.4273   54.6179 H       1  ZINC000466160459    0.4000
     42 H42        -5.0719    4.5523   55.8871 H       1  ZINC000466160459    0.0700
     43 H43        -3.4915    5.2495   56.3157 H       1  ZINC000466160459    0.0700
     44 H44        -4.8871    5.5609   53.6186 H       1  ZINC000466160459    0.1000
     45 H45        -4.8193    6.8015   54.8939 H       1  ZINC000466160459    0.0700
     46 H46        -3.7645    8.2227   53.1121 H       1  ZINC000466160459    0.0400
     47 H47        -2.1535    7.8049   52.4810 H       1  ZINC000466160459    0.0800
     48 H48        -3.5854    6.8991   51.9355 H       1  ZINC000466160459    0.0600
     49 H49        -0.8813    3.3667   52.3640 H       1  ZINC000466160459    0.3900
     50 H50        -2.4193    4.3680   49.6096 H       1  ZINC000466160459    0.0900
     51 H51        -1.1846    3.9154   48.4063 H       1  ZINC000466160459    0.0900
     52 H52        -2.1269    2.0747   50.6544 H       1  ZINC000466160459    0.0700
     53 H53        -2.7770    2.0297   48.9949 H       1  ZINC000466160459    0.1000
     54 H54        -0.9014    0.3754   49.4343 H       1  ZINC000466160459    0.0900
     55 H55        -0.6053    1.4869   48.0810 H       1  ZINC000466160459    0.0800
     56 H56         3.3836   -2.4199   51.2573 H       1  ZINC000466160459    0.0700
     57 H57         4.8614   -1.4428   51.0846 H       1  ZINC000466160459    0.0900
     58 H58         3.7240   -1.1092   52.4124 H       1  ZINC000466160459    0.0900
     59 H59         4.2146   -0.5813   48.6657 H       1  ZINC000466160459    0.1800
     60 H60         2.4562    1.1698   47.8130 H       1  ZINC000466160459    0.1500
     61 H61        -1.3911    4.3778   55.1937 H       1  ZINC000466160459    0.0900
     62 H62        -1.5573    3.2651   53.8111 H       1  ZINC000466160459    0.0700
@<TRIPOS>BOND
     1     1     2    1
     2     1    34    1
     3     1    35    1
     4     1    36    1
     5     2     3    1
     6     3     4    1
     7     3    37    1
     8     3    38    1
     9     4     5    1
    10     4    39    1
    11     4    40    1
    12     5     6   am
    13     5    41    1
    14     6     7    2
    15     6     8    1
    16     8     9    1
    17     8    33    1
    18     8    10    1
    19    10    11    1
    20    10    42    1
    21    10    43    1
    22    11    12    1
    23    11    44    1
    24    11    45    1
    25    12    13    1
    26    12    14    1
    27    12    15    1
    28    14    46    1
    29    14    47    1
    30    14    48    1
    31    15    16   am
    32    15    33    1
    33    16    17    2
    34    16    18   am
    35    18    19    1
    36    18    49    1
    37    19    20    1
    38    19    31    1
    39    19    21    1
    40    21    22    1
    41    21    50    1
    42    21    51    1
    43    22    23    1
    44    22    52    1
    45    22    53    1
    46    23    24    1
    47    23    54    1
    48    23    55    1
    49    24    25    1
    50    24    31   am
    51    25    30    1
    52    25    26    2
    53    26    27    1
    54    27    28    1
    55    27    29    1
    56    28    56    1
    57    28    57    1
    58    28    58    1
    59    29    30    2
    60    29    59    1
    61    30    60    1
    62    31    32    2
    63    33    61    1
    64    33    62    1
@<TRIPOS>SUBSTRUCTURE
     1 ZINC000466160459        1 TEMP              0 ****  ****    0 ROOT


##########                                Name:    ZINC000821214121
##########                DOCK_Rotatable_Bonds:                  10
##########                         Heavy_Atoms:                  23
##########                    Molecular_Weight:             338.434
##########                DOCK_Rotatable_Bonds:                  10
##########                       Formal_Charge:          0.00999954
##########                     HBond_Acceptors:                   9
##########                        HBond_Donors:                   3
##########                         Heavy_Atoms:                  23
##########                          Grid_Score:          -30.338589
##########                     Grid_vdw_energy:          -28.606506
##########                      Grid_es_energy:           -1.732082
##########           Internal_energy_repulsive:           13.017978

@<TRIPOS>MOLECULE
ZINC000821214121
 45 46 1 0 0
SMALL
USER_CHARGES


@<TRIPOS>ATOM
      1 C1        -10.0133    2.8624   59.9000 C.3     1  ZINC000821214121   -0.1500
      2 C2        -10.0354    1.4122   59.4132 C.3     1  ZINC000821214121    0.0500
      3 N3         -9.0689    0.6212   60.1867 N.3     1  ZINC000821214121   -0.5200
      4 C4         -9.6704    0.1269   61.4325 C.3     1  ZINC000821214121    0.0600
      5 C5         -8.5844   -0.0185   62.5004 C.3     1  ZINC000821214121   -0.1200
      6 C6         -9.2337   -0.3431   63.8472 C.3     1  ZINC000821214121    0.0800
      7 O7         -8.2545   -0.2472   64.8836 O.3     1  ZINC000821214121   -0.5700
      8 C8         -8.5338   -0.4870   59.3847 C.3     1  ZINC000821214121    0.0400
      9 C9         -9.6684   -1.2081   58.7037 C.2     1  ZINC000821214121    0.5000
     10 O10       -10.0614   -0.8329   57.6191 O.2     1  ZINC000821214121   -0.4800
     11 N11       -10.2463   -2.2698   59.2995 N.am    1  ZINC000821214121   -0.6300
     12 C12       -11.2945   -2.9377   58.6690 C.2     1  ZINC000821214121    0.0800
     13 C13       -12.6168   -2.7834   58.9620 C.2     1  ZINC000821214121   -0.1000
     14 C14       -13.1080   -1.8619   60.0144 C.2     1  ZINC000821214121    0.2900
     15 N15       -13.4778   -0.6056   59.8437 N.2     1  ZINC000821214121   -0.3300
     16 N16       -13.8630   -0.1420   61.1124 N.pl3   1  ZINC000821214121   -0.2900
     17 N17       -13.7049   -1.1192   61.9383 N.2     1  ZINC000821214121    0.0200
     18 N18       -13.2640   -2.1511   61.3109 N.2     1  ZINC000821214121   -0.2900
     19 C19       -13.4668   -3.5693   58.1840 C.2     1  ZINC000821214121   -0.0500
     20 C20       -14.9647   -3.5476   58.3481 C.3     1  ZINC000821214121   -0.1000
     21 C21       -12.8586   -4.3383   57.2872 C.2     1  ZINC000821214121   -0.2400
     22 C22       -13.5606   -5.2714   56.3345 C.3     1  ZINC000821214121   -0.0800
     23 S23       -11.1182   -4.1055   57.3661 S.3     1  ZINC000821214121    0.2600
     24 H24       -10.1840    2.8871   60.9763 H       1  ZINC000821214121    0.0700
     25 H25        -9.0433    3.3063   59.6757 H       1  ZINC000821214121    0.0500
     26 H26       -10.7969    3.4272   59.3949 H       1  ZINC000821214121    0.0600
     27 H27       -11.0347    0.9986   59.5488 H       1  ZINC000821214121    0.0900
     28 H28        -9.7690    1.3794   58.3568 H       1  ZINC000821214121    0.0400
     29 H29       -10.4259    0.8333   61.7764 H       1  ZINC000821214121    0.0400
     30 H30       -10.1345   -0.8426   61.2521 H       1  ZINC000821214121    0.0800
     31 H31        -7.9053   -0.8239   62.2209 H       1  ZINC000821214121    0.0800
     32 H32        -8.0272    0.9149   62.5814 H       1  ZINC000821214121    0.0700
     33 H33       -10.0395    0.3645   64.0421 H       1  ZINC000821214121    0.0400
     34 H34        -9.6373   -1.3553   63.8213 H       1  ZINC000821214121    0.0500
     35 H35        -7.4515   -0.7589   64.7146 H       1  ZINC000821214121    0.3800
     36 H36        -7.8496   -0.0940   58.6326 H       1  ZINC000821214121    0.0700
     37 H37        -8.0000   -1.1809   60.0341 H       1  ZINC000821214121    0.1200
     38 H38        -9.9329   -2.5692   60.1674 H       1  ZINC000821214121    0.4200
     39 H39       -14.1869    0.7467   61.3269 H       1  ZINC000821214121    0.4700
     40 H40       -15.3907   -2.7862   57.6947 H       1  ZINC000821214121    0.0700
     41 H41       -15.3733   -4.5229   58.0841 H       1  ZINC000821214121    0.0700
     42 H42       -15.2134   -3.3178   59.3842 H       1  ZINC000821214121    0.0900
     43 H43       -13.7951   -4.7401   55.4122 H       1  ZINC000821214121    0.0700
     44 H44       -12.9118   -6.1183   56.1111 H       1  ZINC000821214121    0.0700
     45 H45       -14.4827   -5.6307   56.7914 H       1  ZINC000821214121    0.0800
@<TRIPOS>BOND
     1     1     2    1
     2     1    24    1
     3     1    25    1
     4     1    26    1
     5     2     3    1
     6     2    27    1
     7     2    28    1
     8     3     4    1
     9     3     8    1
    10     4     5    1
    11     4    29    1
    12     4    30    1
    13     5     6    1
    14     5    31    1
    15     5    32    1
    16     6     7    1
    17     6    33    1
    18     6    34    1
    19     7    35    1
    20     8     9    1
    21     8    36    1
    22     8    37    1
    23     9    10    2
    24     9    11   am
    25    11    12    1
    26    11    38    1
    27    12    23    1
    28    12    13    2
    29    13    14    1
    30    13    19    1
    31    14    18    1
    32    14    15    2
    33    15    16    1
    34    16    17    1
    35    16    39    1
    36    17    18    2
    37    19    20    1
    38    19    21    2
    39    20    40    1
    40    20    41    1
    41    20    42    1
    42    21    22    1
    43    21    23    1
    44    22    43    1
    45    22    44    1
    46    22    45    1
@<TRIPOS>SUBSTRUCTURE
     1 ZINC000821214121        1 TEMP              0 ****  ****    0 ROOT


##########                                Name:    ZINC001000186632
##########                DOCK_Rotatable_Bonds:                   7
##########                         Heavy_Atoms:                  23
##########                    Molecular_Weight:             342.379
##########                DOCK_Rotatable_Bonds:                   7
##########                       Formal_Charge:          -0.0100001
##########                     HBond_Acceptors:                  11
##########                        HBond_Donors:                   2
##########                         Heavy_Atoms:                  23
##########                          Grid_Score:          -30.325861
##########                     Grid_vdw_energy:          -27.632370
##########                      Grid_es_energy:           -2.693491
##########           Internal_energy_repulsive:            5.017796

@<TRIPOS>MOLECULE
ZINC001000186632
 41 43 1 0 0
SMALL
USER_CHARGES


@<TRIPOS>ATOM
      1 O1         -1.6758    5.5667   54.5912 O.2     1  ZINC001000186632   -0.5200
      2 C2         -1.6114    4.3772   54.8189 C.2     1  ZINC001000186632    0.5300
      3 C3         -2.5549    3.7478   55.8113 C.3     1  ZINC001000186632   -0.0500
      4 C4         -1.8009    2.7613   56.6653 C.2     1  ZINC001000186632    0.2400
      5 N5         -0.6141    2.9526   57.1787 N.2     1  ZINC001000186632   -0.3000
      6 N6         -0.2908    1.7901   57.8976 N.pl3   1  ZINC001000186632   -0.4800
      7 C7         -1.3375    0.9577   57.7616 C.2     1  ZINC001000186632    0.2700
      8 N8         -2.2382    1.5550   57.0243 N.2     1  ZINC001000186632   -0.5400
      9 N9         -0.7000    3.6171   54.1801 N.am    1  ZINC001000186632   -0.7100
     10 C10         0.2171    4.2289   53.2154 C.3     1  ZINC001000186632    0.1100
     11 C11         1.2262    3.2389   52.6056 C.3     1  ZINC001000186632    0.1000
     12 N12         0.2209    3.0218   51.5471 N.am    1  ZINC001000186632   -0.6500
     13 C13        -0.0507    2.0137   50.6948 C.2     1  ZINC001000186632    0.5100
     14 O14         0.6230    1.0053   50.7139 O.2     1  ZINC001000186632   -0.5100
     15 C15        -1.1915    2.1393   49.7182 C.3     1  ZINC001000186632    0.1500
     16 N16        -0.6600    2.3870   48.3757 N.am    1  ZINC001000186632   -0.9800
     17 C17        -0.0185    3.6250   47.9080 C.3     1  ZINC001000186632    0.0800
     18 C18         1.0025    3.3063   46.7991 C.3     1  ZINC001000186632   -0.1300
     19 C19         0.2560    2.3115   45.8639 C.3     1  ZINC001000186632   -0.6000
     20 S20        -0.6645    1.3131   47.0967 S.o2    1  ZINC001000186632    2.5700
     21 O21         0.1034    0.2010   47.5358 O.2     1  ZINC001000186632   -0.9400
     22 O22        -2.0326    1.1822   46.7354 O.2     1  ZINC001000186632   -0.9600
     23 C23        -0.3675    4.3520   51.7966 C.3     1  ZINC001000186632    0.0900
     24 H24        -2.9852    4.5229   56.4456 H       1  ZINC001000186632    0.1300
     25 H25        -3.3523    3.2311   55.2773 H       1  ZINC001000186632    0.1200
     26 H26         0.5256    1.6215   58.3935 H       1  ZINC001000186632    0.4400
     27 H27        -1.4216   -0.0306   58.1893 H       1  ZINC001000186632    0.2200
     28 H28        -0.6512    2.6650   54.3593 H       1  ZINC001000186632    0.4100
     29 H29         0.6707    5.1488   53.5845 H       1  ZINC001000186632    0.1200
     30 H30         2.1433    3.7091   52.2507 H       1  ZINC001000186632    0.1000
     31 H31         1.4089    2.3606   53.2246 H       1  ZINC001000186632    0.0900
     32 H32        -1.7704    1.2157   49.7150 H       1  ZINC001000186632    0.1100
     33 H33        -1.8331    2.9693   50.0138 H       1  ZINC001000186632    0.1100
     34 H34        -0.7789    4.3001   47.5156 H       1  ZINC001000186632    0.0800
     35 H35         0.4928    4.1045   48.7427 H       1  ZINC001000186632    0.0900
     36 H36         1.2703    4.2123   46.2557 H       1  ZINC001000186632    0.1100
     37 H37         1.8910    2.8378   47.2223 H       1  ZINC001000186632    0.1000
     38 H38        -0.4227    2.8368   45.1920 H       1  ZINC001000186632    0.1400
     39 H39         0.9589    1.6930   45.3058 H       1  ZINC001000186632    0.1400
     40 H40        -1.4571    4.3625   51.7698 H       1  ZINC001000186632    0.0900
     41 H41         0.0815    5.1492   51.2040 H       1  ZINC001000186632    0.1100
@<TRIPOS>BOND
     1     1     2    2
     2     2     3    1
     3     2     9   am
     4     3     4    1
     5     3    24    1
     6     3    25    1
     7     4     8    1
     8     4     5    2
     9     5     6    1
    10     6     7    1
    11     6    26    1
    12     7     8    2
    13     7    27    1
    14     9    10    1
    15     9    28    1
    16    10    23    1
    17    10    11    1
    18    10    29    1
    19    11    12    1
    20    11    30    1
    21    11    31    1
    22    12    13   am
    23    12    23    1
    24    13    14    2
    25    13    15    1
    26    15    16    1
    27    15    32    1
    28    15    33    1
    29    16    20   am
    30    16    17    1
    31    17    18    1
    32    17    34    1
    33    17    35    1
    34    18    19    1
    35    18    36    1
    36    18    37    1
    37    19    20    1
    38    19    38    1
    39    19    39    1
    40    20    21    2
    41    20    22    2
    42    23    40    1
    43    23    41    1
@<TRIPOS>SUBSTRUCTURE
     1 ZINC001000186632        1 TEMP              0 ****  ****    0 ROOT


##########                                Name:    ZINC001176298561
##########                DOCK_Rotatable_Bonds:                   6
##########                         Heavy_Atoms:                  23
##########                    Molecular_Weight:             337.781
##########                DOCK_Rotatable_Bonds:                   6
##########                       Formal_Charge:          -0.0100003
##########                     HBond_Acceptors:                   7
##########                        HBond_Donors:                   2
##########                         Heavy_Atoms:                  23
##########                          Grid_Score:          -30.324657
##########                     Grid_vdw_energy:          -29.917774
##########                      Grid_es_energy:           -0.406884
##########           Internal_energy_repulsive:           13.503370

@<TRIPOS>MOLECULE
ZINC001176298561
 40 41 1 0 0
SMALL
USER_CHARGES


@<TRIPOS>ATOM
      1 C1        -11.7211   -1.8486   57.1099 C.3     1  ZINC001176298561   -0.1700
      2 C2        -13.0073   -2.1173   56.3262 C.3     1  ZINC001176298561    0.1100
      3 N3        -13.2033   -3.5628   56.1903 N.am    1  ZINC001176298561   -0.6100
      4 C4        -13.6650   -4.3504   57.3360 C.3     1  ZINC001176298561    0.0900
      5 C5        -14.6683   -3.5291   58.1484 C.3     1  ZINC001176298561   -0.1800
      6 C6        -12.9589   -4.1680   55.0111 C.2     1  ZINC001176298561    0.5600
      7 O7        -13.1215   -5.3673   54.8983 O.2     1  ZINC001176298561   -0.5300
      8 C8        -12.4930   -3.3731   53.8546 C.ar    1  ZINC001176298561   -0.0600
      9 C9        -13.4164   -2.7223   53.0352 C.ar    1  ZINC001176298561   -0.1900
     10 C10       -12.9782   -1.9796   51.9542 C.ar    1  ZINC001176298561    0.1400
     11 F11       -13.8734   -1.3499   51.1622 F       1  ZINC001176298561   -0.1300
     12 C12       -11.6249   -1.8792   51.6818 C.ar    1  ZINC001176298561   -0.1800
     13 C13       -10.6988   -2.5244   52.4932 C.ar    1  ZINC001176298561    0.2400
     14 N14        -9.3340   -2.4198   52.2147 N.pl3   1  ZINC001176298561   -0.6700
     15 C15        -8.6497   -1.2329   52.5030 C.2     1  ZINC001176298561    0.0400
     16 C16        -9.1572   -0.3444   53.4113 C.2     1  ZINC001176298561   -0.0300
     17 C17        -8.4511    0.8373   53.6822 C.2     1  ZINC001176298561   -0.1300
     18 Cl18       -9.0772    1.9781   54.8312 Cl      1  ZINC001176298561   -0.0400
     19 C19        -7.2820    1.0880   53.0484 C.2     1  ZINC001176298561    0.1400
     20 N20        -6.7761    0.2052   52.1447 N.am    1  ZINC001176298561   -0.6000
     21 C21        -7.4246   -0.9412   51.8640 C.2     1  ZINC001176298561    0.5100
     22 O22        -6.9581   -1.7235   51.0513 O.2     1  ZINC001176298561   -0.5200
     23 C23       -11.1291   -3.2667   53.5828 C.ar    1  ZINC001176298561   -0.1300
     24 H24       -11.5753   -0.7731   57.2111 H       1  ZINC001176298561    0.0700
     25 H25       -11.7976   -2.2995   58.0993 H       1  ZINC001176298561    0.0600
     26 H26       -10.8741   -2.2817   56.5778 H       1  ZINC001176298561    0.0600
     27 H27       -13.8543   -1.6843   56.8584 H       1  ZINC001176298561    0.0800
     28 H28       -12.9308   -1.6663   55.3368 H       1  ZINC001176298561    0.0900
     29 H29       -14.1451   -5.2620   56.9805 H       1  ZINC001176298561    0.0900
     30 H30       -12.8137   -4.6098   57.9653 H       1  ZINC001176298561    0.0800
     31 H31       -15.3186   -2.9762   57.4706 H       1  ZINC001176298561    0.0700
     32 H32       -15.2697   -4.1970   58.7652 H       1  ZINC001176298561    0.0700
     33 H33       -14.1311   -2.8290   58.7883 H       1  ZINC001176298561    0.0600
     34 H34       -14.4730   -2.7991   53.2450 H       1  ZINC001176298561    0.1500
     35 H35       -11.2876   -1.2982   50.8362 H       1  ZINC001176298561    0.1300
     36 H36        -8.8604   -3.1695   51.8216 H       1  ZINC001176298561    0.4200
     37 H37       -10.0907   -0.5503   53.9139 H       1  ZINC001176298561    0.1500
     38 H38        -6.7442    1.9998   53.2622 H       1  ZINC001176298561    0.1800
     39 H39        -5.9368    0.4025   51.7002 H       1  ZINC001176298561    0.4300
     40 H40       -10.4106   -3.7684   54.2140 H       1  ZINC001176298561    0.1400
@<TRIPOS>BOND
     1     1     2    1
     2     1    24    1
     3     1    25    1
     4     1    26    1
     5     2     3    1
     6     2    27    1
     7     2    28    1
     8     3     4    1
     9     3     6   am
    10     4     5    1
    11     4    29    1
    12     4    30    1
    13     5    31    1
    14     5    32    1
    15     5    33    1
    16     6     7    2
    17     6     8    1
    18     8    23   ar
    19     8     9   ar
    20     9    10   ar
    21     9    34    1
    22    10    11    1
    23    10    12   ar
    24    12    13   ar
    25    12    35    1
    26    13    14    1
    27    13    23   ar
    28    14    15    1
    29    14    36    1
    30    15    21    1
    31    15    16    2
    32    16    17    1
    33    16    37    1
    34    17    18    1
    35    17    19    2
    36    19    20    1
    37    19    38    1
    38    20    21   am
    39    20    39    1
    40    21    22    2
    41    23    40    1
@<TRIPOS>SUBSTRUCTURE
     1 ZINC001176298561        1 TEMP              0 ****  ****    0 ROOT


##########                                Name:    ZINC001707804910
##########                DOCK_Rotatable_Bonds:                   4
##########                         Heavy_Atoms:                  26
##########                    Molecular_Weight:             358.403
##########                DOCK_Rotatable_Bonds:                   4
##########                       Formal_Charge:          -0.0399996
##########                     HBond_Acceptors:                  10
##########                        HBond_Donors:                   0
##########                         Heavy_Atoms:                  26
##########                          Grid_Score:          -30.313641
##########                     Grid_vdw_energy:          -30.442015
##########                      Grid_es_energy:            0.128374
##########           Internal_energy_repulsive:            8.254689

@<TRIPOS>MOLECULE
ZINC001707804910
 48 51 1 0 0
SMALL
USER_CHARGES


@<TRIPOS>ATOM
      1 C1         -6.5391   -1.4643   51.2905 C.3     1  ZINC001707804910   -0.0700
      2 C2         -7.3794   -0.3411   51.8413 C.2     1  ZINC001707804910    0.0700
      3 N3         -7.1638    0.9370   51.6628 N.2     1  ZINC001707804910   -0.2800
      4 N4         -8.1666    1.6480   52.3345 N.pl3   1  ZINC001707804910   -0.3700
      5 C5         -8.2993    3.1059   52.3907 C.3     1  ZINC001707804910    0.0900
      6 C6         -8.9891    0.7528   52.9205 C.2     1  ZINC001707804910    0.0500
      7 C7        -10.2064    1.0739   53.7487 C.3     1  ZINC001707804910    0.1800
      8 N8        -11.4106    0.9109   52.9306 N.pl3   1  ZINC001707804910   -0.4600
      9 C9        -12.1098    1.8933   52.2857 C.2     1  ZINC001707804910    0.1900
     10 C10       -11.7848    3.3649   52.2813 C.3     1  ZINC001707804910   -0.0700
     11 N11       -13.1085    1.3212   51.6751 N.2     1  ZINC001707804910   -0.2800
     12 N12       -13.0882    0.0539   51.8888 N.2     1  ZINC001707804910   -0.3000
     13 C13       -12.0639   -0.2535   52.6492 C.2     1  ZINC001707804910    0.3500
     14 N14       -11.7164   -1.5205   53.0902 N.3     1  ZINC001707804910   -0.4600
     15 C15       -11.9126   -2.5197   52.0300 C.3     1  ZINC001707804910    0.0200
     16 C16       -11.4614   -3.8913   52.5389 C.3     1  ZINC001707804910    0.0700
     17 O17       -12.1862   -4.2147   53.7286 O.3     1  ZINC001707804910   -0.3600
     18 C18       -12.0173   -3.2628   54.7824 C.3     1  ZINC001707804910    0.2000
     19 H19       -10.9662   -3.2181   55.0676 H       1  ZINC001707804910    0.1000
     20 C20       -12.8443   -3.6772   55.9722 C.2     1  ZINC001707804910    0.1600
     21 N21       -12.9920   -4.8903   56.4235 N.2     1  ZINC001707804910   -0.2500
     22 N22       -13.7650   -4.8721   57.4519 N.2     1  ZINC001707804910   -0.2900
     23 C23       -14.1366   -3.6467   57.6917 C.2     1  ZINC001707804910    0.1700
     24 C24       -15.0429   -3.1916   58.8065 C.3     1  ZINC001707804910   -0.0600
     25 O25       -13.5598   -2.8625   56.7656 O.3     1  ZINC001707804910   -0.2200
     26 C26       -12.4741   -1.8848   54.2961 C.3     1  ZINC001707804910    0.0400
     27 C27        -8.5279   -0.4849   52.6265 C.2     1  ZINC001707804910   -0.2300
     28 H28        -6.9150   -1.7515   50.3086 H       1  ZINC001707804910    0.0800
     29 H29        -5.5042   -1.1337   51.2010 H       1  ZINC001707804910    0.0700
     30 H30        -6.5901   -2.3200   51.9637 H       1  ZINC001707804910    0.0800
     31 H31        -8.8223    3.4579   51.5015 H       1  ZINC001707804910    0.0800
     32 H32        -8.8652    3.3853   53.2794 H       1  ZINC001707804910    0.0900
     33 H33        -7.3090    3.5595   52.4331 H       1  ZINC001707804910    0.0900
     34 H34       -10.2531    0.3984   54.6029 H       1  ZINC001707804910    0.1100
     35 H35       -10.1440    2.1031   54.1024 H       1  ZINC001707804910    0.1200
     36 H36       -11.0401    3.5701   51.5122 H       1  ZINC001707804910    0.0900
     37 H37       -12.6893    3.9361   52.0729 H       1  ZINC001707804910    0.1000
     38 H38       -11.3897    3.6527   53.2556 H       1  ZINC001707804910    0.0700
     39 H39       -12.9677   -2.5609   51.7593 H       1  ZINC001707804910    0.0700
     40 H40       -11.3226   -2.2436   51.1559 H       1  ZINC001707804910    0.0900
     41 H41       -11.6582   -4.6452   51.7766 H       1  ZINC001707804910    0.1200
     42 H42       -10.3942   -3.8649   52.7587 H       1  ZINC001707804910    0.0700
     43 H43       -14.4452   -2.9544   59.6867 H       1  ZINC001707804910    0.1000
     44 H44       -15.5913   -2.3045   58.4898 H       1  ZINC001707804910    0.1000
     45 H45       -15.7475   -3.9869   59.0495 H       1  ZINC001707804910    0.1100
     46 H46       -12.2940   -1.1454   55.0765 H       1  ZINC001707804910    0.1000
     47 H47       -13.5382   -1.9159   54.0619 H       1  ZINC001707804910    0.0800
     48 H48        -8.9657   -1.4188   52.9469 H       1  ZINC001707804910    0.1500
@<TRIPOS>BOND
     1     1     2    1
     2     1    28    1
     3     1    29    1
     4     1    30    1
     5     2    27    1
     6     2     3    2
     7     3     4    1
     8     4     5    1
     9     4     6    1
    10     5    31    1
    11     5    32    1
    12     5    33    1
    13     6     7    1
    14     6    27    2
    15     7     8    1
    16     7    34    1
    17     7    35    1
    18     8    13    1
    19     8     9    1
    20     9    10    1
    21     9    11    2
    22    10    36    1
    23    10    37    1
    24    10    38    1
    25    11    12    1
    26    12    13    2
    27    13    14    1
    28    14    26    1
    29    14    15    1
    30    15    16    1
    31    15    39    1
    32    15    40    1
    33    16    17    1
    34    16    41    1
    35    16    42    1
    36    17    18    1
    37    18    19    1
    38    18    20    1
    39    18    26    1
    40    20    25    1
    41    20    21    2
    42    21    22    1
    43    22    23    2
    44    23    24    1
    45    23    25    1
    46    24    43    1
    47    24    44    1
    48    24    45    1
    49    26    46    1
    50    26    47    1
    51    27    48    1
@<TRIPOS>SUBSTRUCTURE
     1 ZINC001707804910        1 TEMP              0 ****  ****    0 ROOT


##########                                Name:    ZINC000004313955
##########                DOCK_Rotatable_Bonds:                   6
##########                         Heavy_Atoms:                  26
##########                    Molecular_Weight:             414.358
##########                DOCK_Rotatable_Bonds:                   6
##########                       Formal_Charge:           0.0299997
##########                     HBond_Acceptors:                   9
##########                        HBond_Donors:                   2
##########                         Heavy_Atoms:                  26
##########                          Grid_Score:          -30.311546
##########                     Grid_vdw_energy:          -24.506498
##########                      Grid_es_energy:           -5.805048
##########           Internal_energy_repulsive:           10.115894

@<TRIPOS>MOLECULE
ZINC000004313955
 47 49 1 0 0
SMALL
USER_CHARGES


@<TRIPOS>ATOM
      1 C1         -0.7244    5.9798   50.8621 C.3     1  ZINC000004313955   -0.1500
      2 C2         -1.3265    5.4668   52.1719 C.3     1  ZINC000004313955   -0.1100
      3 H3         -1.4559    6.2992   52.8635 H       1  ZINC000004313955    0.0800
      4 C4         -0.3894    4.4280   52.7924 C.3     1  ZINC000004313955   -0.1100
      5 C5         -0.9748    3.9383   54.1189 C.3     1  ZINC000004313955   -0.1100
      6 H6         -0.2956    3.2159   54.5717 H       1  ZINC000004313955    0.0900
      7 C7         -1.1609    5.1266   55.0646 C.3     1  ZINC000004313955   -0.1500
      8 C8         -2.3302    3.2730   53.8596 C.3     1  ZINC000004313955    0.1200
      9 N9         -3.1894    4.2178   53.1331 N.am    1  ZINC000004313955   -0.6000
     10 C10        -4.4160    4.5277   53.5978 C.2     1  ZINC000004313955    0.5400
     11 O11        -5.1150    5.3102   52.9896 O.2     1  ZINC000004313955   -0.5300
     12 C12        -4.9187    3.9019   54.8733 C.3     1  ZINC000004313955   -0.1400
     13 S13        -6.5047    4.6472   55.3265 S.3     1  ZINC000004313955    0.0800
     14 C14        -7.6004    3.6152   54.4104 C.2     1  ZINC000004313955    0.1100
     15 N15        -8.3417    3.9788   53.3879 N.2     1  ZINC000004313955   -0.2800
     16 N16        -9.0210    2.9768   52.9567 N.2     1  ZINC000004313955   -0.2400
     17 C17        -8.7552    1.9119   53.6770 C.2     1  ZINC000004313955    0.2500
     18 C18        -9.3335    0.5633   53.4978 C.ar    1  ZINC000004313955   -0.0100
     19 C19       -10.5817    0.2582   54.0421 C.ar    1  ZINC000004313955   -0.0700
     20 C20       -11.1162   -1.0021   53.8717 C.ar    1  ZINC000004313955   -0.1100
     21 C21       -10.4172   -1.9642   53.1625 C.ar    1  ZINC000004313955   -0.0100
     22 Cl22      -11.0970   -3.5478   52.9533 Cl      1  ZINC000004313955   -0.0500
     23 C23        -9.1783   -1.6684   52.6192 C.ar    1  ZINC000004313955   -0.1100
     24 C24        -8.6352   -0.4093   52.7779 C.ar    1  ZINC000004313955    0.0100
     25 Cl25       -7.0820   -0.0395   52.0964 Cl      1  ZINC000004313955   -0.0100
     26 N26        -7.8332    2.2867   54.6268 N.pl3   1  ZINC000004313955   -0.3000
     27 N27        -7.2732    1.4969   55.5905 N.3     1  ZINC000004313955   -0.5800
     28 C28        -2.6862    4.8196   51.8907 C.3     1  ZINC000004313955    0.1100
     29 H29        -1.3927    6.7187   50.4199 H       1  ZINC000004313955    0.0600
     30 H30         0.2435    6.4391   51.0625 H       1  ZINC000004313955    0.0600
     31 H31        -0.5952    5.1470   50.1709 H       1  ZINC000004313955    0.0600
     32 H32        -0.2795    3.5848   52.1106 H       1  ZINC000004313955    0.0700
     33 H33         0.5864    4.8799   52.9708 H       1  ZINC000004313955    0.0700
     34 H34        -1.8410    5.8482   54.6119 H       1  ZINC000004313955    0.0600
     35 H35        -1.5779    4.7773   56.0092 H       1  ZINC000004313955    0.0600
     36 H36        -0.1965    5.6008   55.2464 H       1  ZINC000004313955    0.0600
     37 H37        -2.1872    2.3739   53.2604 H       1  ZINC000004313955    0.0700
     38 H38        -2.7963    3.0113   54.8095 H       1  ZINC000004313955    0.1000
     39 H39        -5.0501    2.8301   54.7248 H       1  ZINC000004313955    0.1300
     40 H40        -4.1959    4.0724   55.6711 H       1  ZINC000004313955    0.1300
     41 H41       -11.1280    1.0072   54.5961 H       1  ZINC000004313955    0.1600
     42 H42       -12.0822   -1.2390   54.2927 H       1  ZINC000004313955    0.1500
     43 H43        -8.6378   -2.4229   52.0671 H       1  ZINC000004313955    0.1500
     44 H44        -6.5452    0.9154   55.2033 H       1  ZINC000004313955    0.3700
     45 H45        -6.9228    2.0535   56.3556 H       1  ZINC000004313955    0.3800
     46 H46        -3.3874    5.5775   51.5417 H       1  ZINC000004313955    0.0900
     47 H47        -2.5720    4.0468   51.1304 H       1  ZINC000004313955    0.0800
@<TRIPOS>BOND
     1     1     2    1
     2     1    29    1
     3     1    30    1
     4     1    31    1
     5     2     3    1
     6     2    28    1
     7     2     4    1
     8     4     5    1
     9     4    32    1
    10     4    33    1
    11     5     6    1
    12     5     7    1
    13     5     8    1
    14     7    34    1
    15     7    35    1
    16     7    36    1
    17     8     9    1
    18     8    37    1
    19     8    38    1
    20     9    10   am
    21     9    28    1
    22    10    11    2
    23    10    12    1
    24    12    13    1
    25    12    39    1
    26    12    40    1
    27    13    14    1
    28    14    26    1
    29    14    15    2
    30    15    16    1
    31    16    17    2
    32    17    18    1
    33    17    26    1
    34    18    24   ar
    35    18    19   ar
    36    19    20   ar
    37    19    41    1
    38    20    21   ar
    39    20    42    1
    40    21    22    1
    41    21    23   ar
    42    23    24   ar
    43    23    43    1
    44    24    25    1
    45    26    27    1
    46    27    44    1
    47    27    45    1
    48    28    46    1
    49    28    47    1
@<TRIPOS>SUBSTRUCTURE
     1 ZINC000004313955        1 TEMP              0 ****  ****    0 ROOT


##########                                Name:    ZINC001058772245
##########                DOCK_Rotatable_Bonds:                  11
##########                         Heavy_Atoms:                  22
##########                    Molecular_Weight:             335.375
##########                DOCK_Rotatable_Bonds:                  11
##########                       Formal_Charge:          0.00999964
##########                     HBond_Acceptors:                   9
##########                        HBond_Donors:                   2
##########                         Heavy_Atoms:                  22
##########                          Grid_Score:          -30.276445
##########                     Grid_vdw_energy:          -29.728815
##########                      Grid_es_energy:           -0.547631
##########           Internal_energy_repulsive:           69.271339

@<TRIPOS>MOLECULE
ZINC001058772245
 41 41 1 0 0
SMALL
USER_CHARGES


@<TRIPOS>ATOM
      1 C1        -13.2823   -4.7267   57.1899 C.3     1  ZINC001058772245   -0.1700
      2 C2        -12.7306   -3.3354   56.8726 C.3     1  ZINC001058772245   -0.1400
      3 C3        -11.7714   -2.9018   57.9829 C.3     1  ZINC001058772245   -0.1500
      4 C4        -11.9935   -3.3748   55.5589 C.2     1  ZINC001058772245    0.5300
      5 O5        -10.8110   -3.1085   55.5188 O.2     1  ZINC001058772245   -0.5200
      6 N6        -12.6483   -3.7062   54.4284 N.am    1  ZINC001058772245   -0.5900
      7 C7        -14.0766   -4.0280   54.4768 C.3     1  ZINC001058772245    0.0800
      8 C8        -14.8124   -3.2484   53.3851 C.3     1  ZINC001058772245    0.0400
      9 O9        -14.5509   -1.8520   53.5385 O.3     1  ZINC001058772245   -0.5700
     10 C10       -11.9316   -3.7445   53.1512 C.3     1  ZINC001058772245    0.1100
     11 C11       -11.6308   -2.3164   52.6921 C.3     1  ZINC001058772245    0.1000
     12 N12       -10.1882   -2.1627   52.4881 N.am    1  ZINC001058772245   -0.7100
     13 C13        -9.6773   -0.9568   52.1700 C.2     1  ZINC001058772245    0.6000
     14 O14       -10.4137    0.0043   52.0539 O.2     1  ZINC001058772245   -0.5300
     15 C15        -8.2274   -0.8027   51.9631 C.2     1  ZINC001058772245    0.0000
     16 C16        -7.5320    0.2792   52.3805 C.2     1  ZINC001058772245   -0.2200
     17 S17        -5.8890    0.0771   51.9541 S.3     1  ZINC001058772245    0.2300
     18 C18        -6.2249   -1.4391   51.2436 C.2     1  ZINC001058772245    0.0000
     19 N19        -7.4756   -1.7210   51.3506 N.2     1  ZINC001058772245   -0.4400
     20 C20       -13.8867   -2.3375   56.7791 C.3     1  ZINC001058772245    0.2900
     21 F21       -15.0510   -2.9238   57.2869 F       1  ZINC001058772245   -0.1900
     22 F22       -13.5773   -1.1942   57.5237 F       1  ZINC001058772245   -0.2000
     23 H23       -14.0432   -4.6476   57.9663 H       1  ZINC001058772245    0.0800
     24 H24       -13.7241   -5.1561   56.2907 H       1  ZINC001058772245    0.0700
     25 H25       -12.4726   -5.3678   57.5386 H       1  ZINC001058772245    0.0900
     26 H26       -10.8304   -3.4427   57.8819 H       1  ZINC001058772245    0.0800
     27 H27       -11.5850   -1.8307   57.9042 H       1  ZINC001058772245    0.0700
     28 H28       -12.2152   -3.1231   58.9535 H       1  ZINC001058772245    0.0900
     29 H29       -14.2138   -5.0972   54.3150 H       1  ZINC001058772245    0.0900
     30 H30       -14.4780   -3.7539   55.4525 H       1  ZINC001058772245    0.1200
     31 H31       -14.4644   -3.5779   52.4061 H       1  ZINC001058772245    0.0600
     32 H32       -15.8841   -3.4288   53.4694 H       1  ZINC001058772245    0.0700
     33 H33       -14.9896   -1.2951   52.8808 H       1  ZINC001058772245    0.3800
     34 H34       -10.9967   -4.2908   53.2754 H       1  ZINC001058772245    0.1000
     35 H35       -12.5479   -4.2442   52.4038 H       1  ZINC001058772245    0.0900
     36 H36       -12.1532   -2.1178   51.7563 H       1  ZINC001058772245    0.0700
     37 H37       -11.9672   -1.6118   53.4527 H       1  ZINC001058772245    0.0700
     38 H38        -9.6008   -2.9289   52.5818 H       1  ZINC001058772245    0.4100
     39 H39        -7.9466    1.1313   52.8984 H       1  ZINC001058772245    0.1900
     40 H40        -5.4892   -2.0744   50.7730 H       1  ZINC001058772245    0.2100
     41 H41       -14.0442   -2.0606   55.7367 H       1  ZINC001058772245    0.1200
@<TRIPOS>BOND
     1     1     2    1
     2     1    23    1
     3     1    24    1
     4     1    25    1
     5     2     3    1
     6     2     4    1
     7     2    20    1
     8     3    26    1
     9     3    27    1
    10     3    28    1
    11     4     5    2
    12     4     6   am
    13     6     7    1
    14     6    10    1
    15     7     8    1
    16     7    29    1
    17     7    30    1
    18     8     9    1
    19     8    31    1
    20     8    32    1
    21     9    33    1
    22    10    11    1
    23    10    34    1
    24    10    35    1
    25    11    12    1
    26    11    36    1
    27    11    37    1
    28    12    13   am
    29    12    38    1
    30    13    14    2
    31    13    15    1
    32    15    19    1
    33    15    16    2
    34    16    17    1
    35    16    39    1
    36    17    18    1
    37    18    19    2
    38    18    40    1
    39    20    21    1
    40    20    22    1
    41    20    41    1
@<TRIPOS>SUBSTRUCTURE
     1 ZINC001058772245        1 TEMP              0 ****  ****    0 ROOT


##########                                Name:    ZINC000266467123
##########                DOCK_Rotatable_Bonds:                   9
##########                         Heavy_Atoms:                  25
##########                    Molecular_Weight:             337.421
##########                DOCK_Rotatable_Bonds:                   9
##########                       Formal_Charge:                0.02
##########                     HBond_Acceptors:                   5
##########                        HBond_Donors:                   3
##########                         Heavy_Atoms:                  25
##########                          Grid_Score:          -30.270073
##########                     Grid_vdw_energy:          -27.577551
##########                      Grid_es_energy:           -2.692523
##########           Internal_energy_repulsive:           12.739794

@<TRIPOS>MOLECULE
ZINC000266467123
 48 50 1 0 0
SMALL
USER_CHARGES


@<TRIPOS>ATOM
      1 C1         -0.2455    4.0912   53.3132 C.3     1  <0>        -0.1600
      2 C2         -1.4934    4.0395   52.4294 C.3     1  <0>         0.1500
      3 H3         -1.8200    5.0542   52.2022 H       1  <0>         0.1200
      4 N4         -2.5625    3.3288   53.1352 N.am    1  <0>        -0.7300
      5 C5         -3.8101    3.8381   53.1571 C.2     1  <0>         0.7100
      6 O6         -4.0486    4.8867   52.5898 O.2     1  <0>        -0.5900
      7 N7         -4.7932    3.1852   53.8077 N.am    1  <0>        -0.7100
      8 C8         -6.1497    3.7379   53.8300 C.3     1  <0>         0.1100
      9 H9         -6.2140    4.8232   53.9093 H       1  <0>         0.1400
     10 C10        -7.2373    2.9135   54.5217 C.3     1  <0>        -0.1900
     11 C11        -7.2164    3.0264   52.9953 C.3     1  <0>        -0.1500
     12 H12        -7.9826    3.6433   52.5257 H       1  <0>         0.1200
     13 C13        -6.7855    1.7914   52.2015 C.3     1  <0>        -0.0500
     14 C14        -7.8665    0.7440   52.2758 C.ar    1  <0>        -0.0800
     15 C15        -9.1914    1.1244   52.3811 C.ar    1  <0>        -0.1100
     16 C16       -10.1829    0.1637   52.4492 C.ar    1  <0>        -0.1200
     17 C17        -9.8499   -1.1773   52.4116 C.ar    1  <0>        -0.1200
     18 C18        -8.5251   -1.5577   52.3053 C.ar    1  <0>        -0.1200
     19 C19        -7.5337   -0.5970   52.2329 C.ar    1  <0>        -0.1200
     20 C20        -1.1710    3.3164   51.1470 C.2     1  <0>         0.5100
     21 O21        -0.4903    2.3130   51.1713 O.2     1  <0>        -0.5100
     22 N22        -1.6392    3.7850   49.9733 N.am    1  <0>        -0.6700
     23 C23        -1.3399    3.1136   48.7826 C.ar    1  <0>         0.1400
     24 C24        -0.6461    3.7658   47.7717 C.ar    1  <0>        -0.1400
     25 C25        -0.3522    3.1003   46.5976 C.ar    1  <0>        -0.1000
     26 C26        -0.7484    1.7864   46.4280 C.ar    1  <0>        -0.1300
     27 C27        -1.4397    1.1344   47.4326 C.ar    1  <0>        -0.1000
     28 C28        -1.7309    1.7921   48.6117 C.ar    1  <0>        -0.1200
     29 H29         0.5500    4.6200   52.7882 H       1  <0>         0.0700
     30 H30        -0.4786    4.6141   54.2408 H       1  <0>         0.0800
     31 H31         0.0811    3.0765   53.5405 H       1  <0>         0.0700
     32 H32        -2.3725    2.4916   53.5868 H       1  <0>         0.4100
     33 H33        -4.6026    2.3492   54.2613 H       1  <0>         0.4000
     34 H34        -6.9436    1.9599   54.9602 H       1  <0>         0.1000
     35 H35        -8.0173    3.4564   55.0557 H       1  <0>         0.1000
     36 H36        -6.6190    2.0685   51.1605 H       1  <0>         0.0800
     37 H37        -5.8631    1.3921   52.6231 H       1  <0>         0.0700
     38 H38        -9.4515    2.1722   52.4106 H       1  <0>         0.1200
     39 H39       -11.2179    0.4610   52.5323 H       1  <0>         0.1200
     40 H40       -10.6245   -1.9279   52.4656 H       1  <0>         0.1200
     41 H41        -8.2648   -2.6055   52.2763 H       1  <0>         0.1200
     42 H42        -6.4988   -0.8942   52.1499 H       1  <0>         0.1200
     43 H43        -2.1836    4.5875   49.9539 H       1  <0>         0.4100
     44 H44        -0.3370    4.7921   47.9033 H       1  <0>         0.1300
     45 H45         0.1873    3.6069   45.8110 H       1  <0>         0.1300
     46 H46        -0.5177    1.2683   45.5089 H       1  <0>         0.1200
     47 H47        -1.7484    0.1085   47.2968 H       1  <0>         0.1300
     48 H48        -2.2709    1.2825   49.3959 H       1  <0>         0.1400
@<TRIPOS>BOND
     1     1     2    1
     2     1    29    1
     3     1    30    1
     4     1    31    1
     5     2     3    1
     6     2     4    1
     7     2    20    1
     8     4     5   am
     9     4    32    1
    10     5     6    2
    11     5     7   am
    12     7     8    1
    13     7    33    1
    14     8     9    1
    15     8    11    1
    16     8    10    1
    17    10    11    1
    18    10    34    1
    19    10    35    1
    20    11    12    1
    21    11    13    1
    22    13    14    1
    23    13    36    1
    24    13    37    1
    25    14    19   ar
    26    14    15   ar
    27    15    16   ar
    28    15    38    1
    29    16    17   ar
    30    16    39    1
    31    17    18   ar
    32    17    40    1
    33    18    19   ar
    34    18    41    1
    35    19    42    1
    36    20    21    2
    37    20    22   am
    38    22    23    1
    39    22    43    1
    40    23    28   ar
    41    23    24   ar
    42    24    25   ar
    43    24    44    1
    44    25    26   ar
    45    25    45    1
    46    26    27   ar
    47    26    46    1
    48    27    28   ar
    49    27    47    1
    50    28    48    1
@<TRIPOS>SUBSTRUCTURE
     1 <0>         1 TEMP              0 ****  ****    0 ROOT


##########                                Name:    ZINC000854704989
##########                DOCK_Rotatable_Bonds:                   5
##########                         Heavy_Atoms:                  22
##########                    Molecular_Weight:             365.227
##########                DOCK_Rotatable_Bonds:                   5
##########                       Formal_Charge:        -1.78814e-07
##########                     HBond_Acceptors:                   5
##########                        HBond_Donors:                   1
##########                         Heavy_Atoms:                  22
##########                          Grid_Score:          -30.250244
##########                     Grid_vdw_energy:          -30.228870
##########                      Grid_es_energy:           -0.021374
##########           Internal_energy_repulsive:            6.790601

@<TRIPOS>MOLECULE
ZINC000854704989
 39 41 1 0 0
SMALL
USER_CHARGES


@<TRIPOS>ATOM
      1 O1         -2.2071    4.3766   50.5645 O.2     1  ZINC000854704989   -0.5300
      2 C2         -2.1880    3.2071   50.2339 C.2     1  ZINC000854704989    0.5700
      3 N3         -2.8952    2.2975   50.9332 N.am    1  ZINC000854704989   -0.7300
      4 C4         -3.6822    2.7174   52.0953 C.3     1  ZINC000854704989    0.2000
      5 C5         -4.9213    1.8657   52.1972 C.2     1  ZINC000854704989   -0.0500
      6 C6         -5.0522    0.5757   51.8069 C.2     1  ZINC000854704989   -0.1700
      7 C7         -6.3951    0.2586   52.1199 C.2     1  ZINC000854704989    0.0000
      8 Br8        -7.2638   -1.3973   51.8380 Br      1  ZINC000854704989    0.0600
      9 N9         -6.9141    1.3336   52.6412 N.2     1  ZINC000854704989   -0.3200
     10 O10        -6.1091    2.2340   52.6975 O.3     1  ZINC000854704989    0.1300
     11 C11        -1.3938    2.7832   49.0611 C.ar    1  ZINC000854704989   -0.1300
     12 C12        -1.3794    1.4432   48.6715 C.ar    1  ZINC000854704989   -0.0900
     13 C13        -0.6366    1.0544   47.5758 C.ar    1  ZINC000854704989   -0.1200
     14 C14         0.0934    1.9894   46.8641 C.ar    1  ZINC000854704989   -0.0900
     15 C15         0.0836    3.3198   47.2451 C.ar    1  ZINC000854704989   -0.0800
     16 C16         0.8818    4.3315   46.4638 C.3     1  ZINC000854704989   -0.0800
     17 H17         0.8079    5.3056   46.9473 H       1  ZINC000854704989    0.0900
     18 C18         0.3328    4.4252   45.0369 C.3     1  ZINC000854704989   -0.1100
     19 C19         1.1997    5.3977   44.2310 C.3     1  ZINC000854704989   -0.1600
     20 C20         2.6539    4.9202   44.2640 C.3     1  ZINC000854704989    0.0600
     21 O21         3.0921    4.8255   45.6208 O.3     1  ZINC000854704989   -0.3800
     22 C22         2.3486    3.8961   46.4119 C.3     1  ZINC000854704989    0.0700
     23 C23        -0.6595    3.7226   48.3351 C.ar    1  ZINC000854704989   -0.0500
     24 H24        -2.8830    1.3648   50.6670 H       1  ZINC000854704989    0.4000
     25 H25        -3.0853    2.6003   52.9998 H       1  ZINC000854704989    0.1100
     26 H26        -3.9683    3.7630   51.9817 H       1  ZINC000854704989    0.1000
     27 H27        -4.3050   -0.0632   51.3598 H       1  ZINC000854704989    0.1900
     28 H28        -1.9484    0.7122   49.2267 H       1  ZINC000854704989    0.1200
     29 H29        -0.6247    0.0177   47.2733 H       1  ZINC000854704989    0.1300
     30 H30         0.6738    1.6798   46.0075 H       1  ZINC000854704989    0.1300
     31 H31         0.3597    3.4404   44.5705 H       1  ZINC000854704989    0.0700
     32 H32        -0.6942    4.7892   45.0644 H       1  ZINC000854704989    0.0700
     33 H33         0.8497    5.4283   43.1992 H       1  ZINC000854704989    0.0800
     34 H34         1.1332    6.3935   44.6689 H       1  ZINC000854704989    0.0700
     35 H35         2.7260    3.9416   43.7894 H       1  ZINC000854704989    0.0500
     36 H36         3.2822    5.6316   43.7279 H       1  ZINC000854704989    0.1000
     37 H37         2.7575    3.8699   47.4219 H       1  ZINC000854704989    0.1000
     38 H38         2.4161    2.9037   45.9662 H       1  ZINC000854704989    0.0500
     39 H39        -0.6667    4.7613   48.6312 H       1  ZINC000854704989    0.1400
@<TRIPOS>BOND
     1     1     2    2
     2     2     3   am
     3     2    11    1
     4     3     4    1
     5     3    24    1
     6     4     5    1
     7     4    25    1
     8     4    26    1
     9     5    10    1
    10     5     6    2
    11     6     7    1
    12     6    27    1
    13     7     8    1
    14     7     9    2
    15     9    10    1
    16    11    23   ar
    17    11    12   ar
    18    12    13   ar
    19    12    28    1
    20    13    14   ar
    21    13    29    1
    22    14    15   ar
    23    14    30    1
    24    15    16    1
    25    15    23   ar
    26    16    17    1
    27    16    22    1
    28    16    18    1
    29    18    19    1
    30    18    31    1
    31    18    32    1
    32    19    20    1
    33    19    33    1
    34    19    34    1
    35    20    21    1
    36    20    35    1
    37    20    36    1
    38    21    22    1
    39    22    37    1
    40    22    38    1
    41    23    39    1
@<TRIPOS>SUBSTRUCTURE
     1 ZINC000854704989        1 TEMP              0 ****  ****    0 ROOT


##########                                Name:    ZINC000652498551
##########                DOCK_Rotatable_Bonds:                   6
##########                         Heavy_Atoms:                  23
##########                    Molecular_Weight:             388.277
##########                DOCK_Rotatable_Bonds:                   6
##########                       Formal_Charge:          -0.0400001
##########                     HBond_Acceptors:                   5
##########                        HBond_Donors:                   1
##########                         Heavy_Atoms:                  23
##########                          Grid_Score:          -30.248394
##########                     Grid_vdw_energy:          -25.965107
##########                      Grid_es_energy:           -4.283286
##########           Internal_energy_repulsive:           23.455458

@<TRIPOS>MOLECULE
ZINC000652498551
 46 47 1 0 0
SMALL
USER_CHARGES


@<TRIPOS>ATOM
      1 C1         -9.7891    1.2832   53.8829 C.3     1  ZINC000652498551   -0.1300
      2 C2         -8.7085    1.4430   52.8115 C.3     1  ZINC000652498551   -0.1300
      3 C3         -8.4312    0.0864   52.1606 C.3     1  ZINC000652498551   -0.1300
      4 C4         -9.1811    2.4163   51.7626 C.2     1  ZINC000652498551    0.5000
      5 O5         -8.3739    2.9643   51.0315 O.co2   1  ZINC000652498551   -0.7000
      6 O6        -10.3708    2.6558   51.6450 O.co2   1  ZINC000652498551   -0.6700
      7 C7         -7.4254    1.9711   53.4561 C.3     1  ZINC000652498551   -0.0600
      8 H8         -7.1764    1.3608   54.3242 H       1  ZINC000652498551    0.0700
      9 C9         -7.6338    3.4235   53.8948 C.3     1  ZINC000652498551   -0.1500
     10 C10        -6.3213    3.9669   54.4668 C.3     1  ZINC000652498551   -0.1400
     11 C11        -5.2181    3.8315   53.4152 C.3     1  ZINC000652498551   -0.0100
     12 N12        -5.0494    2.4180   53.0571 N.4     1  ZINC000652498551   -0.3800
     13 H13        -4.8443    1.8838   53.8881 H       1  ZINC000652498551    0.4200
     14 C14        -3.9389    2.2848   52.1047 C.3     1  ZINC000652498551    0.0000
     15 C15        -2.6610    2.8486   52.7293 C.3     1  ZINC000652498551    0.0200
     16 O16        -1.5236    2.3317   52.0355 O.3     1  ZINC000652498551   -0.3100
     17 C17        -1.2903    2.8150   50.7870 C.ar    1  ZINC000652498551    0.1600
     18 C18        -0.9326    4.1433   50.6124 C.ar    1  ZINC000652498551   -0.2300
     19 C19        -0.6956    4.6334   49.3400 C.ar    1  ZINC000652498551    0.1500
     20 F20        -0.3471    5.9274   49.1688 F       1  ZINC000652498551   -0.1200
     21 C21        -0.8154    3.7978   48.2426 C.ar    1  ZINC000652498551   -0.1600
     22 C22        -1.1728    2.4726   48.4159 C.ar    1  ZINC000652498551   -0.0300
     23 Br23       -1.3354    1.3340   46.9150 Br      1  ZINC000652498551   -0.0100
     24 C24        -1.4045    1.9784   49.6859 C.ar    1  ZINC000652498551   -0.1300
     25 C25        -6.2810    1.9085   52.4423 C.3     1  ZINC000652498551   -0.0200
     26 H26        -9.4473    0.5792   54.6416 H       1  ZINC000652498551    0.0400
     27 H27        -9.9866    2.2496   54.3465 H       1  ZINC000652498551    0.0500
     28 H28       -10.7032    0.9070   53.4236 H       1  ZINC000652498551    0.0600
     29 H29        -9.3453   -0.2898   51.7013 H       1  ZINC000652498551    0.0700
     30 H30        -7.6615    0.2002   51.3972 H       1  ZINC000652498551    0.0400
     31 H31        -8.0894   -0.6176   52.9193 H       1  ZINC000652498551    0.0500
     32 H32        -7.9336    4.0241   53.0361 H       1  ZINC000652498551    0.1300
     33 H33        -8.4097    3.4655   54.6592 H       1  ZINC000652498551    0.0800
     34 H34        -6.4463    5.0172   54.7300 H       1  ZINC000652498551    0.1000
     35 H35        -6.0486    3.3983   55.3559 H       1  ZINC000652498551    0.0700
     36 H36        -5.4917    4.4007   52.5268 H       1  ZINC000652498551    0.1300
     37 H37        -4.2823    4.2177   53.8191 H       1  ZINC000652498551    0.1100
     38 H38        -3.7915    1.2323   51.8632 H       1  ZINC000652498551    0.1400
     39 H39        -4.1726    2.8371   51.1945 H       1  ZINC000652498551    0.1500
     40 H40        -2.6690    3.9360   52.6544 H       1  ZINC000652498551    0.1100
     41 H41        -2.6101    2.5570   53.7783 H       1  ZINC000652498551    0.0900
     42 H42        -0.8393    4.7949   51.4686 H       1  ZINC000652498551    0.1500
     43 H43        -0.6299    4.1810   47.2501 H       1  ZINC000652498551    0.1500
     44 H44        -1.6831    0.9437   49.8203 H       1  ZINC000652498551    0.1500
     45 H45        -6.1294    0.8759   52.1280 H       1  ZINC000652498551    0.1100
     46 H46        -6.5325    2.5183   51.5746 H       1  ZINC000652498551    0.1700
@<TRIPOS>BOND
     1     1     2    1
     2     1    26    1
     3     1    27    1
     4     1    28    1
     5     2     3    1
     6     2     4    1
     7     2     7    1
     8     3    29    1
     9     3    30    1
    10     3    31    1
    11     4     5   ar
    12     4     6   ar
    13     7     8    1
    14     7    25    1
    15     7     9    1
    16     9    10    1
    17     9    32    1
    18     9    33    1
    19    10    11    1
    20    10    34    1
    21    10    35    1
    22    11    12    1
    23    11    36    1
    24    11    37    1
    25    12    13    1
    26    12    14    1
    27    12    25    1
    28    14    15    1
    29    14    38    1
    30    14    39    1
    31    15    16    1
    32    15    40    1
    33    15    41    1
    34    16    17    1
    35    17    24   ar
    36    17    18   ar
    37    18    19   ar
    38    18    42    1
    39    19    20    1
    40    19    21   ar
    41    21    22   ar
    42    21    43    1
    43    22    23    1
    44    22    24   ar
    45    24    44    1
    46    25    45    1
    47    25    46    1
@<TRIPOS>SUBSTRUCTURE
     1 ZINC000652498551        1 TEMP              0 ****  ****    0 ROOT


##########                                Name:    ZINC001087843226
##########                DOCK_Rotatable_Bonds:                   6
##########                         Heavy_Atoms:                  27
##########                    Molecular_Weight:             368.479
##########                DOCK_Rotatable_Bonds:                   6
##########                       Formal_Charge:        -4.47035e-07
##########                     HBond_Acceptors:                   6
##########                        HBond_Donors:                   1
##########                         Heavy_Atoms:                  27
##########                          Grid_Score:          -30.220890
##########                     Grid_vdw_energy:          -27.074982
##########                      Grid_es_energy:           -3.145909
##########           Internal_energy_repulsive:           27.161360

@<TRIPOS>MOLECULE
ZINC001087843226
 55 58 1 0 0
SMALL
USER_CHARGES


@<TRIPOS>ATOM
      1 C1         -3.4024    3.0653   52.3235 C.3     1  ZINC001087843226   -0.1500
      2 C2         -2.8603    3.3797   53.7192 C.3     1  ZINC001087843226   -0.1500
      3 C3         -1.5663    4.1865   53.5940 C.3     1  ZINC001087843226    0.0700
      4 H4         -1.7719    5.1452   53.1177 H       1  ZINC001087843226    0.1000
      5 C5         -0.5340    3.3974   52.7615 C.3     1  ZINC001087843226    0.1300
      6 H6         -0.7518    2.3297   52.7892 H       1  ZINC001087843226    0.1000
      7 N7         -0.5037    3.8822   51.3793 N.am    1  ZINC001087843226   -0.7200
      8 C8          0.2413    3.2417   50.4567 C.2     1  ZINC001087843226    0.5600
      9 O9          0.8891    2.2626   50.7717 O.2     1  ZINC001087843226   -0.5300
     10 C10         0.2705    3.7299   49.0615 C.ar    1  ZINC001087843226   -0.1400
     11 C11         0.6279    5.0505   48.7914 C.ar    1  ZINC001087843226   -0.0800
     12 C12         0.6533    5.5002   47.4872 C.ar    1  ZINC001087843226   -0.1300
     13 C13         0.3258    4.6443   46.4525 C.ar    1  ZINC001087843226   -0.0400
     14 C14         0.3565    5.1440   45.0310 C.3     1  ZINC001087843226   -0.1200
     15 C15        -0.0304    3.3296   46.7119 C.ar    1  ZINC001087843226   -0.1100
     16 C16        -0.0547    2.8666   48.0109 C.ar    1  ZINC001087843226   -0.0300
     17 C17        -0.4723    1.4120   48.0299 C.3     1  ZINC001087843226   -0.0800
     18 C18        -1.1195    1.1600   46.6514 C.3     1  ZINC001087843226   -0.1200
     19 C19        -0.4246    2.2167   45.7640 C.3     1  ZINC001087843226   -0.0800
     20 C20         0.8046    3.7031   53.4836 C.3     1  ZINC001087843226   -0.1400
     21 C21         0.3545    3.7630   54.9646 C.3     1  ZINC001087843226    0.0400
     22 N22        -0.9803    4.4052   54.9292 N.3     1  ZINC001087843226   -0.5100
     23 C23        -1.8522    3.8660   55.9814 C.3     1  ZINC001087843226    0.1100
     24 C24        -1.2726    4.1970   57.3325 C.2     1  ZINC001087843226    0.0800
     25 N25        -0.9934    5.3929   57.7575 N.2     1  ZINC001087843226   -0.2700
     26 O26        -0.4702    5.2658   59.0701 O.3     1  ZINC001087843226    0.0300
     27 N27        -0.4716    3.8788   59.3689 N.2     1  ZINC001087843226   -0.2800
     28 C28        -0.9546    3.2585   58.3342 C.2     1  ZINC001087843226    0.0900
     29 C29        -1.1363    1.7669   58.2194 C.3     1  ZINC001087843226   -0.0900
     30 H30        -4.2857    2.4327   52.4109 H       1  ZINC001087843226    0.0600
     31 H31        -3.6692    3.9943   51.8196 H       1  ZINC001087843226    0.0600
     32 H32        -2.6385    2.5450   51.7456 H       1  ZINC001087843226    0.0600
     33 H33        -3.5980    3.9599   54.2735 H       1  ZINC001087843226    0.0800
     34 H34        -2.6580    2.4486   54.2487 H       1  ZINC001087843226    0.0700
     35 H35        -1.0197    4.6643   51.1283 H       1  ZINC001087843226    0.4000
     36 H36         0.8835    5.7191   49.6001 H       1  ZINC001087843226    0.1300
     37 H37         0.9292    6.5225   47.2746 H       1  ZINC001087843226    0.1300
     38 H38         1.3488    4.9819   44.6103 H       1  ZINC001087843226    0.0800
     39 H39        -0.3819    4.6025   44.4396 H       1  ZINC001087843226    0.0700
     40 H40         0.1247    6.2089   45.0152 H       1  ZINC001087843226    0.0700
     41 H41         0.3987    0.7701   48.1619 H       1  ZINC001087843226    0.0800
     42 H42        -1.1964    1.2367   48.8255 H       1  ZINC001087843226    0.0900
     43 H43        -0.8977    0.1532   46.2974 H       1  ZINC001087843226    0.0800
     44 H44        -2.1954    1.3297   46.6916 H       1  ZINC001087843226    0.0700
     45 H45        -1.1174    2.5933   45.0115 H       1  ZINC001087843226    0.0800
     46 H46         0.4574    1.7893   45.2872 H       1  ZINC001087843226    0.0800
     47 H47         1.5251    2.9005   53.3265 H       1  ZINC001087843226    0.0800
     48 H48         1.2126    4.6608   53.1605 H       1  ZINC001087843226    0.0800
     49 H49         0.2826    2.7578   55.3803 H       1  ZINC001087843226    0.0600
     50 H50         1.0493    4.3669   55.5482 H       1  ZINC001087843226    0.0800
     51 H51        -2.8444    4.3085   55.8934 H       1  ZINC001087843226    0.1200
     52 H52        -1.9260    2.7839   55.8728 H       1  ZINC001087843226    0.0700
     53 H53        -2.1578    1.5031   58.4934 H       1  ZINC001087843226    0.1000
     54 H54        -0.9435    1.4554   57.1928 H       1  ZINC001087843226    0.0900
     55 H55        -0.4390    1.2634   58.8890 H       1  ZINC001087843226    0.0900
@<TRIPOS>BOND
     1     1     2    1
     2     1    30    1
     3     1    31    1
     4     1    32    1
     5     2     3    1
     6     2    33    1
     7     2    34    1
     8     3     4    1
     9     3    22    1
    10     3     5    1
    11     5     6    1
    12     5     7    1
    13     5    20    1
    14     7     8   am
    15     7    35    1
    16     8     9    2
    17     8    10    1
    18    10    16   ar
    19    10    11   ar
    20    11    12   ar
    21    11    36    1
    22    12    13   ar
    23    12    37    1
    24    13    14    1
    25    13    15   ar
    26    14    38    1
    27    14    39    1
    28    14    40    1
    29    15    19    1
    30    15    16   ar
    31    16    17    1
    32    17    18    1
    33    17    41    1
    34    17    42    1
    35    18    19    1
    36    18    43    1
    37    18    44    1
    38    19    45    1
    39    19    46    1
    40    20    21    1
    41    20    47    1
    42    20    48    1
    43    21    22    1
    44    21    49    1
    45    21    50    1
    46    22    23    1
    47    23    24    1
    48    23    51    1
    49    23    52    1
    50    24    28    1
    51    24    25    2
    52    25    26    1
    53    26    27    1
    54    27    28    2
    55    28    29    1
    56    29    53    1
    57    29    54    1
    58    29    55    1
@<TRIPOS>SUBSTRUCTURE
     1 ZINC001087843226        1 TEMP              0 ****  ****    0 ROOT


##########                                Name:    ZINC000156038173
##########                DOCK_Rotatable_Bonds:                  10
##########                         Heavy_Atoms:                  27
##########                    Molecular_Weight:             396.357
##########                DOCK_Rotatable_Bonds:                  10
##########                       Formal_Charge:         -0.00999981
##########                     HBond_Acceptors:                  10
##########                        HBond_Donors:                   1
##########                         Heavy_Atoms:                  27
##########                          Grid_Score:          -30.212856
##########                     Grid_vdw_energy:          -29.576313
##########                      Grid_es_energy:           -0.636543
##########           Internal_energy_repulsive:           39.322235

@<TRIPOS>MOLECULE
ZINC000156038173
 48 48 1 0 0
SMALL
USER_CHARGES


@<TRIPOS>ATOM
      1 C1        -13.2790   -4.7563   54.9191 C.3     1  ZINC000156038173    0.0700
      2 N2        -12.4838   -3.5307   55.0270 N.am    1  ZINC000156038173   -0.6300
      3 C3        -12.2449   -2.9257   56.3398 C.3     1  ZINC000156038173    0.1500
      4 C4        -11.0629   -3.6237   57.0154 C.3     1  ZINC000156038173   -0.1400
      5 C5        -10.6868   -2.8750   58.2681 C.2     1  ZINC000156038173    0.4700
      6 O6        -10.3175   -3.4808   59.2461 O.2     1  ZINC000156038173   -0.5000
      7 O7        -10.7620   -1.5352   58.2974 O.3     1  ZINC000156038173   -0.3500
      8 C8        -10.1449   -0.8648   59.4279 C.3     1  ZINC000156038173    0.1200
      9 C9        -10.9018   -1.2229   60.7084 C.3     1  ZINC000156038173   -0.1800
     10 C10        -8.6879   -1.3144   59.5541 C.3     1  ZINC000156038173   -0.1400
     11 C11       -10.1947    0.6491   59.2124 C.3     1  ZINC000156038173   -0.1800
     12 C12       -11.9719   -2.9597   53.9187 C.2     1  ZINC000156038173    0.7100
     13 O13       -12.1714   -3.4608   52.8290 O.2     1  ZINC000156038173   -0.5700
     14 N14       -11.2390   -1.8330   54.0182 N.am    1  ZINC000156038173   -0.7400
     15 C15       -10.6840   -1.2113   52.8134 C.3     1  ZINC000156038173    0.1700
     16 H16       -10.3356   -1.9873   52.1317 H       1  ZINC000156038173    0.1500
     17 C17        -9.5289   -0.3213   53.1938 C.ar    1  ZINC000156038173   -0.1300
     18 C18        -9.6670    0.5863   54.2270 C.ar    1  ZINC000156038173   -0.0700
     19 C19        -8.6082    1.4036   54.5772 C.ar    1  ZINC000156038173   -0.1000
     20 C20        -7.4095    1.3147   53.8950 C.ar    1  ZINC000156038173   -0.1100
     21 C21        -7.2681    0.4068   52.8599 C.ar    1  ZINC000156038173    0.0700
     22 F22        -6.0967    0.3193   52.1924 F       1  ZINC000156038173   -0.1200
     23 C23        -8.3280   -0.4168   52.5124 C.ar    1  ZINC000156038173    0.1000
     24 F24        -8.1923   -1.3037   51.5023 F       1  ZINC000156038173   -0.1200
     25 C25       -11.7661   -0.3765   52.1255 C.3     1  ZINC000156038173    0.4500
     26 F26       -12.3520   -1.1264   51.1001 F       1  ZINC000156038173   -0.1700
     27 F27       -12.7443   -0.0198   53.0598 F       1  ZINC000156038173   -0.1600
     28 F28       -11.1912    0.7800   51.5876 F       1  ZINC000156038173   -0.1700
     29 H29       -14.3297   -4.4974   54.7882 H       1  ZINC000156038173    0.0600
     30 H30       -12.9382   -5.3363   54.0615 H       1  ZINC000156038173    0.0700
     31 H31       -13.1609   -5.3472   55.8274 H       1  ZINC000156038173    0.0800
     32 H32       -12.0190   -1.8665   56.2159 H       1  ZINC000156038173    0.1000
     33 H33       -13.1351   -3.0374   56.9587 H       1  ZINC000156038173    0.0900
     34 H34       -11.3429   -4.6451   57.2729 H       1  ZINC000156038173    0.1100
     35 H35       -10.2128   -3.6409   56.3334 H       1  ZINC000156038173    0.1100
     36 H36       -10.8663   -2.3015   60.8619 H       1  ZINC000156038173    0.0600
     37 H37       -10.4384   -0.7197   61.5571 H       1  ZINC000156038173    0.0700
     38 H38       -11.9397   -0.9027   60.6185 H       1  ZINC000156038173    0.0800
     39 H39        -8.1486   -1.0593   58.6418 H       1  ZINC000156038173    0.0700
     40 H40        -8.2245   -0.8112   60.4027 H       1  ZINC000156038173    0.0800
     41 H41        -8.6523   -2.3930   59.7075 H       1  ZINC000156038173    0.0700
     42 H42       -11.2326    0.9693   59.1225 H       1  ZINC000156038173    0.0800
     43 H43        -9.7313    1.1523   60.0611 H       1  ZINC000156038173    0.0700
     44 H44        -9.6554    0.9042   58.3001 H       1  ZINC000156038173    0.0600
     45 H45       -11.0789   -1.4338   54.8877 H       1  ZINC000156038173    0.4100
     46 H46       -10.6030    0.6575   54.7610 H       1  ZINC000156038173    0.1400
     47 H47        -8.7181    2.1124   55.3845 H       1  ZINC000156038173    0.1500
     48 H48        -6.5834    1.9539   54.1693 H       1  ZINC000156038173    0.1500
@<TRIPOS>BOND
     1     1     2    1
     2     1    29    1
     3     1    30    1
     4     1    31    1
     5     2     3    1
     6     2    12   am
     7     3     4    1
     8     3    32    1
     9     3    33    1
    10     4     5    1
    11     4    34    1
    12     4    35    1
    13     5     6    2
    14     5     7    1
    15     7     8    1
    16     8     9    1
    17     8    10    1
    18     8    11    1
    19     9    36    1
    20     9    37    1
    21     9    38    1
    22    10    39    1
    23    10    40    1
    24    10    41    1
    25    11    42    1
    26    11    43    1
    27    11    44    1
    28    12    13    2
    29    12    14   am
    30    14    15    1
    31    14    45    1
    32    15    16    1
    33    15    17    1
    34    15    25    1
    35    17    23   ar
    36    17    18   ar
    37    18    19   ar
    38    18    46    1
    39    19    20   ar
    40    19    47    1
    41    20    21   ar
    42    20    48    1
    43    21    22    1
    44    21    23   ar
    45    23    24    1
    46    25    26    1
    47    25    27    1
    48    25    28    1
@<TRIPOS>SUBSTRUCTURE
     1 ZINC000156038173        1 TEMP              0 ****  ****    0 ROOT


##########                                Name:    ZINC000937331732
##########                DOCK_Rotatable_Bonds:                   6
##########                         Heavy_Atoms:                  24
##########                    Molecular_Weight:              333.35
##########                DOCK_Rotatable_Bonds:                   6
##########                       Formal_Charge:          -0.0299999
##########                     HBond_Acceptors:                  10
##########                        HBond_Donors:                   1
##########                         Heavy_Atoms:                  24
##########                          Grid_Score:          -30.210686
##########                     Grid_vdw_energy:          -28.926670
##########                      Grid_es_energy:           -1.284016
##########           Internal_energy_repulsive:           25.483540

@<TRIPOS>MOLECULE
ZINC000937331732
 43 45 1 0 0
SMALL
USER_CHARGES


@<TRIPOS>ATOM
      1 C1        -12.0055   -3.5562   53.6208 C.3     1  ZINC000937331732    0.0600
      2 N2        -11.7602   -2.3137   54.3573 N.am    1  ZINC000937331732   -0.6100
      3 C3        -10.8424   -1.4346   53.9089 C.2     1  ZINC000937331732    0.5000
      4 O4        -10.6404   -0.4053   54.5177 O.2     1  ZINC000937331732   -0.5200
      5 C5        -10.0671   -1.7304   52.6509 C.3     1  ZINC000937331732    0.1500
      6 N6         -9.0928   -0.6621   52.4151 N.am    1  ZINC000937331732   -0.4400
      7 N7         -9.3612    0.7131   52.3746 N.2     1  ZINC000937331732   -0.2800
      8 C8         -8.2496    1.3338   52.1433 C.2     1  ZINC000937331732    0.2600
      9 N9         -7.2409    0.4087   52.0275 N.am    1  ZINC000937331732   -0.5600
     10 C10        -5.8305    0.7059   51.7653 C.3     1  ZINC000937331732    0.1000
     11 C11        -7.7695   -0.8191   52.2022 C.2     1  ZINC000937331732    0.6500
     12 O12        -7.1652   -1.8763   52.1667 O.2     1  ZINC000937331732   -0.5500
     13 C13       -12.5126   -2.0269   55.5812 C.3     1  ZINC000937331732    0.1300
     14 H14       -13.2405   -1.2343   55.4078 H       1  ZINC000937331732    0.1200
     15 C15       -13.2112   -3.3079   56.1090 C.3     1  ZINC000937331732   -0.1500
     16 C16       -13.3268   -2.9978   57.6224 C.3     1  ZINC000937331732    0.1000
     17 N17       -12.0834   -2.2796   57.9565 N.am    1  ZINC000937331732   -0.6000
     18 C18       -11.5216   -2.2088   59.1795 C.2     1  ZINC000937331732    0.6200
     19 O19       -12.0456   -2.7695   60.1227 O.2     1  ZINC000937331732   -0.5400
     20 C20       -10.2717   -1.4516   59.3737 C.2     1  ZINC000937331732    0.1400
     21 N21        -9.5184   -1.4707   60.4529 N.2     1  ZINC000937331732   -0.4400
     22 C22        -8.4734   -0.6672   60.2685 C.2     1  ZINC000937331732   -0.0300
     23 C23        -8.5680   -0.1209   59.0314 C.2     1  ZINC000937331732   -0.0200
     24 N24        -9.6933   -0.6138   58.4621 N.pl3   1  ZINC000937331732   -0.5200
     25 C25       -11.5578   -1.6491   56.7332 C.3     1  ZINC000937331732    0.1000
     26 H26       -11.3424   -4.3367   53.9939 H       1  ZINC000937331732    0.0700
     27 H27       -13.0422   -3.8627   53.7605 H       1  ZINC000937331732    0.0800
     28 H28       -11.8145   -3.3935   52.5600 H       1  ZINC000937331732    0.0800
     29 H29        -9.5448   -2.6808   52.7610 H       1  ZINC000937331732    0.1300
     30 H30       -10.7537   -1.7889   51.8063 H       1  ZINC000937331732    0.1300
     31 H31        -8.1339    2.4040   52.0554 H       1  ZINC000937331732    0.2300
     32 H32        -5.6972    1.7838   51.6741 H       1  ZINC000937331732    0.1000
     33 H33        -5.2215    0.3328   52.5888 H       1  ZINC000937331732    0.0800
     34 H34        -5.5235    0.2221   50.8381 H       1  ZINC000937331732    0.0800
     35 H35       -14.1963   -3.4294   55.6587 H       1  ZINC000937331732    0.0900
     36 H36       -12.5932   -4.1890   55.9368 H       1  ZINC000937331732    0.0800
     37 H37       -14.1936   -2.3657   57.8149 H       1  ZINC000937331732    0.0800
     38 H38       -13.3960   -3.9228   58.1948 H       1  ZINC000937331732    0.1100
     39 H39        -7.6847   -0.4821   60.9827 H       1  ZINC000937331732    0.1800
     40 H40        -7.8740    0.5743   58.5828 H       1  ZINC000937331732    0.1900
     41 H41       -10.0288   -0.4067   57.5759 H       1  ZINC000937331732    0.4300
     42 H42       -10.5576   -2.0272   56.5217 H       1  ZINC000937331732    0.0800
     43 H43       -11.5286   -0.5666   56.8572 H       1  ZINC000937331732    0.0800
@<TRIPOS>BOND
     1     1     2    1
     2     1    26    1
     3     1    27    1
     4     1    28    1
     5     2     3   am
     6     2    13    1
     7     3     4    2
     8     3     5    1
     9     5     6    1
    10     5    29    1
    11     5    30    1
    12     6    11   am
    13     6     7    1
    14     7     8    2
    15     8     9    1
    16     8    31    1
    17     9    10    1
    18     9    11   am
    19    10    32    1
    20    10    33    1
    21    10    34    1
    22    11    12    2
    23    13    14    1
    24    13    25    1
    25    13    15    1
    26    15    16    1
    27    15    35    1
    28    15    36    1
    29    16    17    1
    30    16    37    1
    31    16    38    1
    32    17    18   am
    33    17    25    1
    34    18    19    2
    35    18    20    1
    36    20    24    1
    37    20    21    2
    38    21    22    1
    39    22    23    2
    40    22    39    1
    41    23    24    1
    42    23    40    1
    43    24    41    1
    44    25    42    1
    45    25    43    1
@<TRIPOS>SUBSTRUCTURE
     1 ZINC000937331732        1 TEMP              0 ****  ****    0 ROOT


##########                                Name:    ZINC001015955459
##########                DOCK_Rotatable_Bonds:                   6
##########                         Heavy_Atoms:                  24
##########                    Molecular_Weight:             347.844
##########                DOCK_Rotatable_Bonds:                   6
##########                       Formal_Charge:          -0.0200002
##########                     HBond_Acceptors:                   6
##########                        HBond_Donors:                   1
##########                         Heavy_Atoms:                  24
##########                          Grid_Score:          -30.204985
##########                     Grid_vdw_energy:          -30.049299
##########                      Grid_es_energy:           -0.155685
##########           Internal_energy_repulsive:           10.450024

@<TRIPOS>MOLECULE
ZINC001015955459
 46 48 1 0 0
SMALL
USER_CHARGES


@<TRIPOS>ATOM
      1 C1         -7.7901    1.7944   54.2094 C.3     1  ZINC001015955459   -0.1500
      2 C2         -8.1444    1.6692   52.7262 C.3     1  ZINC001015955459   -0.0300
      3 C3         -7.3611    2.7112   51.9251 C.3     1  ZINC001015955459   -0.1500
      4 C4         -7.7870    0.2886   52.2393 C.2     1  ZINC001015955459    0.0600
      5 C5         -8.5589   -0.8284   52.3329 C.2     1  ZINC001015955459   -0.0800
      6 C6         -9.9035   -0.9161   52.9307 C.2     1  ZINC001015955459    0.6100
      7 O7        -10.4407    0.0832   53.3689 O.2     1  ZINC001015955459   -0.5300
      8 N8        -10.5378   -2.1038   52.9917 N.am    1  ZINC001015955459   -0.7100
      9 C9        -11.8747   -2.1907   53.5843 C.3     1  ZINC001015955459    0.1400
     10 H10       -12.4036   -1.2452   53.4639 H       1  ZINC001015955459    0.1000
     11 C11       -12.6749   -3.3387   52.9351 C.3     1  ZINC001015955459   -0.1300
     12 C12       -12.9941   -4.3095   54.0922 C.3     1  ZINC001015955459    0.0200
     13 N13       -12.9337   -3.4676   55.3146 N.3     1  ZINC001015955459   -0.4900
     14 C14       -12.7219   -4.2921   56.5118 C.3     1  ZINC001015955459    0.0800
     15 C15       -12.8772   -3.4382   57.7438 C.ar    1  ZINC001015955459   -0.1100
     16 C16       -14.1391   -3.1163   58.2068 C.ar    1  ZINC001015955459   -0.1100
     17 C17       -14.2823   -2.3369   59.3399 C.ar    1  ZINC001015955459   -0.1000
     18 C18       -13.1638   -1.8704   60.0039 C.ar    1  ZINC001015955459   -0.1100
     19 C19       -11.9002   -2.1878   59.5378 C.ar    1  ZINC001015955459   -0.0300
     20 Cl20      -10.4945   -1.6017   60.3710 Cl      1  ZINC001015955459   -0.0700
     21 C21       -11.7575   -2.9721   58.4072 C.ar    1  ZINC001015955459   -0.1000
     22 C22       -11.7755   -2.5631   55.0792 C.3     1  ZINC001015955459    0.0100
     23 N23        -7.8536   -1.8500   51.7760 N.2     1  ZINC001015955459   -0.4600
     24 C24        -6.7160   -1.3838   51.3552 C.2     1  ZINC001015955459    0.1800
     25 O25        -6.6467   -0.0736   51.6300 O.3     1  ZINC001015955459   -0.1900
     26 H26        -6.7214    1.6273   54.3430 H       1  ZINC001015955459    0.0600
     27 H27        -8.0486    2.7930   54.5617 H       1  ZINC001015955459    0.0700
     28 H28        -8.3481    1.0522   54.7801 H       1  ZINC001015955459    0.0600
     29 H29        -9.2132    1.8363   52.5926 H       1  ZINC001015955459    0.1300
     30 H30        -7.6135    2.6220   50.8685 H       1  ZINC001015955459    0.0600
     31 H31        -7.6197    3.7098   52.2774 H       1  ZINC001015955459    0.0700
     32 H32        -6.2924    2.5442   52.0588 H       1  ZINC001015955459    0.0600
     33 H33       -10.1088   -2.9010   52.6433 H       1  ZINC001015955459    0.4100
     34 H34       -13.5965   -2.9568   52.4960 H       1  ZINC001015955459    0.0800
     35 H35       -12.0728   -3.8375   52.1756 H       1  ZINC001015955459    0.0700
     36 H36       -13.9918   -4.7314   53.9701 H       1  ZINC001015955459    0.0900
     37 H37       -12.2483   -5.1028   54.1396 H       1  ZINC001015955459    0.0500
     38 H38       -13.4561   -5.0974   56.5330 H       1  ZINC001015955459    0.0900
     39 H39       -11.7180   -4.7162   56.4879 H       1  ZINC001015955459    0.0900
     40 H40       -15.0135   -3.4769   57.6857 H       1  ZINC001015955459    0.1300
     41 H41       -15.2685   -2.0891   59.7036 H       1  ZINC001015955459    0.1300
     42 H42       -13.2758   -1.2578   60.8863 H       1  ZINC001015955459    0.1300
     43 H43       -10.7715   -3.2199   58.0426 H       1  ZINC001015955459    0.1300
     44 H44       -10.8390   -3.0833   55.2801 H       1  ZINC001015955459    0.0700
     45 H45       -11.8562   -1.6704   55.6994 H       1  ZINC001015955459    0.0900
     46 H46        -5.9460   -1.9616   50.8659 H       1  ZINC001015955459    0.2600
@<TRIPOS>BOND
     1     1     2    1
     2     1    26    1
     3     1    27    1
     4     1    28    1
     5     2     3    1
     6     2     4    1
     7     2    29    1
     8     3    30    1
     9     3    31    1
    10     3    32    1
    11     4    25    1
    12     4     5    2
    13     5     6    1
    14     5    23    1
    15     6     7    2
    16     6     8   am
    17     8     9    1
    18     8    33    1
    19     9    10    1
    20     9    22    1
    21     9    11    1
    22    11    12    1
    23    11    34    1
    24    11    35    1
    25    12    13    1
    26    12    36    1
    27    12    37    1
    28    13    14    1
    29    13    22    1
    30    14    15    1
    31    14    38    1
    32    14    39    1
    33    15    21   ar
    34    15    16   ar
    35    16    17   ar
    36    16    40    1
    37    17    18   ar
    38    17    41    1
    39    18    19   ar
    40    18    42    1
    41    19    20    1
    42    19    21   ar
    43    21    43    1
    44    22    44    1
    45    22    45    1
    46    23    24    2
    47    24    25    1
    48    24    46    1
@<TRIPOS>SUBSTRUCTURE
     1 ZINC001015955459        1 TEMP              0 ****  ****    0 ROOT


##########                                Name:    ZINC000269287897
##########                DOCK_Rotatable_Bonds:                   8
##########                         Heavy_Atoms:                  23
##########                    Molecular_Weight:             385.301
##########                DOCK_Rotatable_Bonds:                   8
##########                       Formal_Charge:           0.0300002
##########                     HBond_Acceptors:                   5
##########                        HBond_Donors:                   1
##########                         Heavy_Atoms:                  23
##########                          Grid_Score:          -30.203287
##########                     Grid_vdw_energy:          -30.186867
##########                      Grid_es_energy:           -0.016420
##########           Internal_energy_repulsive:           11.527248

@<TRIPOS>MOLECULE
ZINC000269287897
 48 49 1 0 0
SMALL
USER_CHARGES


@<TRIPOS>ATOM
      1 C1        -11.4804   -4.0158   57.4449 C.3     1  ZINC000269287897    0.0300
      2 O2        -12.7386   -4.6817   57.3204 O.3     1  ZINC000269287897   -0.3800
      3 C3        -13.6801   -3.9955   56.4931 C.3     1  ZINC000269287897    0.0600
      4 C4        -13.4482   -4.3791   55.0302 C.3     1  ZINC000269287897    0.0600
      5 O5        -12.3534   -3.6242   54.5075 O.3     1  ZINC000269287897   -0.3800
      6 C6        -11.9224   -4.0459   53.2120 C.3     1  ZINC000269287897    0.0700
      7 C7        -11.4342   -2.8333   52.4170 C.3     1  ZINC000269287897   -0.1000
      8 H8        -10.9952   -3.1417   51.4682 H       1  ZINC000269287897    0.1000
      9 C9        -12.5837   -1.8154   52.1933 C.3     1  ZINC000269287897   -0.1200
     10 C10       -11.8338   -0.4754   52.0395 C.3     1  ZINC000269287897    0.1000
     11 N11       -10.5210   -0.6337   52.6821 N.am    1  ZINC000269287897   -0.6300
     12 C12        -9.5589    0.3081   52.7457 C.2     1  ZINC000269287897    0.7300
     13 O13        -9.7434    1.4005   52.2445 O.2     1  ZINC000269287897   -0.5600
     14 N14        -8.3924    0.0390   53.3647 N.am    1  ZINC000269287897   -0.6900
     15 C15        -7.3932    1.0172   53.4307 C.ar    1  ZINC000269287897    0.1800
     16 C16        -6.3851    1.0473   52.4770 C.ar    1  ZINC000269287897   -0.0600
     17 C17        -6.3648    0.0265   51.3685 C.3     1  ZINC000269287897   -0.1000
     18 C18        -5.4005    2.0142   52.5445 C.ar    1  ZINC000269287897   -0.0900
     19 C19        -5.4183    2.9515   53.5606 C.ar    1  ZINC000269287897   -0.0800
     20 C20        -4.3426    4.0046   53.6308 C.3     1  ZINC000269287897   -0.1100
     21 C21        -6.4212    2.9252   54.5126 C.ar    1  ZINC000269287897   -0.0900
     22 C22        -7.4115    1.9638   54.4480 C.ar    1  ZINC000269287897   -0.1000
     23 Br23       -8.7829    1.9285   55.7495 Br      1  ZINC000269287897   -0.0500
     24 C24       -10.4308   -1.9933   53.2461 C.3     1  ZINC000269287897    0.1400
     25 H25       -11.0261   -3.9104   56.4597 H       1  ZINC000269287897    0.0400
     26 H26       -11.6333   -3.0290   57.8819 H       1  ZINC000269287897    0.0400
     27 H27       -10.8222   -4.5999   58.0880 H       1  ZINC000269287897    0.0900
     28 H28       -14.6923   -4.2747   56.7857 H       1  ZINC000269287897    0.0600
     29 H29       -13.5514   -2.9196   56.6113 H       1  ZINC000269287897    0.0600
     30 H30       -13.2199   -5.4430   54.9654 H       1  ZINC000269287897    0.0700
     31 H31       -14.3467   -4.1646   54.4515 H       1  ZINC000269287897    0.0600
     32 H32       -11.1088   -4.7639   53.3156 H       1  ZINC000269287897    0.0600
     33 H33       -12.7551   -4.5136   52.6865 H       1  ZINC000269287897    0.0500
     34 H34       -13.1382   -2.0534   51.2856 H       1  ZINC000269287897    0.0900
     35 H35       -13.2485   -1.7885   53.0567 H       1  ZINC000269287897    0.0800
     36 H36       -11.7036   -0.2426   50.9826 H       1  ZINC000269287897    0.0700
     37 H37       -12.3932    0.3209   52.5304 H       1  ZINC000269287897    0.0700
     38 H38        -8.2452   -0.8325   53.7645 H       1  ZINC000269287897    0.4100
     39 H39        -6.8085    0.4565   50.4705 H       1  ZINC000269287897    0.0900
     40 H40        -5.3351   -0.2646   51.1614 H       1  ZINC000269287897    0.0600
     41 H41        -6.9364   -0.8506   51.6719 H       1  ZINC000269287897    0.0600
     42 H42        -4.6159    2.0377   51.8027 H       1  ZINC000269287897    0.1300
     43 H43        -4.6548    4.8813   53.0634 H       1  ZINC000269287897    0.0700
     44 H44        -4.1763    4.2853   54.6709 H       1  ZINC000269287897    0.0700
     45 H45        -3.4187    3.6090   53.2091 H       1  ZINC000269287897    0.0700
     46 H46        -6.4323    3.6587   55.3051 H       1  ZINC000269287897    0.1400
     47 H47       -10.7192   -1.9878   54.2972 H       1  ZINC000269287897    0.0700
     48 H48        -9.4203   -2.3854   53.1312 H       1  ZINC000269287897    0.0900
@<TRIPOS>BOND
     1     1     2    1
     2     1    25    1
     3     1    26    1
     4     1    27    1
     5     2     3    1
     6     3     4    1
     7     3    28    1
     8     3    29    1
     9     4     5    1
    10     4    30    1
    11     4    31    1
    12     5     6    1
    13     6     7    1
    14     6    32    1
    15     6    33    1
    16     7     8    1
    17     7    24    1
    18     7     9    1
    19     9    10    1
    20     9    34    1
    21     9    35    1
    22    10    11    1
    23    10    36    1
    24    10    37    1
    25    11    12   am
    26    11    24    1
    27    12    13    2
    28    12    14   am
    29    14    15    1
    30    14    38    1
    31    15    22   ar
    32    15    16   ar
    33    16    17    1
    34    16    18   ar
    35    17    39    1
    36    17    40    1
    37    17    41    1
    38    18    19   ar
    39    18    42    1
    40    19    20    1
    41    19    21   ar
    42    20    43    1
    43    20    44    1
    44    20    45    1
    45    21    22   ar
    46    21    46    1
    47    22    23    1
    48    24    47    1
    49    24    48    1
@<TRIPOS>SUBSTRUCTURE
     1 ZINC000269287897        1 TEMP              0 ****  ****    0 ROOT


##########                                Name:    ZINC000463741321
##########                DOCK_Rotatable_Bonds:                   7
##########                         Heavy_Atoms:                  26
##########                    Molecular_Weight:             354.467
##########                DOCK_Rotatable_Bonds:                   7
##########                       Formal_Charge:         -6.4075e-07
##########                     HBond_Acceptors:                   4
##########                        HBond_Donors:                   1
##########                         Heavy_Atoms:                  26
##########                          Grid_Score:          -30.191042
##########                     Grid_vdw_energy:          -30.210567
##########                      Grid_es_energy:            0.019525
##########           Internal_energy_repulsive:           12.665331

@<TRIPOS>MOLECULE
ZINC000463741321
 53 55 1 0 0
SMALL
USER_CHARGES


@<TRIPOS>ATOM
      1 C1        -12.3399   -2.6106   58.6354 C.3     1  ZINC000463741321   -0.1500
      2 C2        -13.3395   -3.1359   57.6030 C.3     1  ZINC000463741321   -0.1100
      3 H3        -13.7787   -4.0662   57.9632 H       1  ZINC000463741321    0.1000
      4 C4        -14.4443   -2.0993   57.3895 C.3     1  ZINC000463741321   -0.0900
      5 C5        -15.7108   -2.5453   58.1228 C.3     1  ZINC000463741321   -0.0800
      6 C6        -15.5916   -2.2024   59.5854 C.ar    1  ZINC000463741321   -0.1200
      7 C7        -15.1744   -3.1616   60.4883 C.ar    1  ZINC000463741321   -0.0900
      8 C8        -15.0649   -2.8473   61.8304 C.ar    1  ZINC000463741321   -0.1300
      9 C9        -15.3729   -1.5737   62.2704 C.ar    1  ZINC000463741321   -0.1000
     10 C10       -15.7908   -0.6128   61.3691 C.ar    1  ZINC000463741321   -0.1500
     11 C11       -15.8944   -0.9244   60.0242 C.ar    1  ZINC000463741321    0.1000
     12 F12       -16.3028    0.0141   59.1423 F       1  ZINC000463741321   -0.1400
     13 C13       -12.6284   -3.3883   56.2985 C.2     1  ZINC000463741321    0.5200
     14 O14       -12.5730   -4.5121   55.8456 O.2     1  ZINC000463741321   -0.5300
     15 N15       -12.0542   -2.3654   55.6350 N.am    1  ZINC000463741321   -0.7300
     16 C16       -11.3614   -2.6111   54.3677 C.3     1  ZINC000463741321    0.1500
     17 H17       -10.7978   -3.5415   54.4356 H       1  ZINC000463741321    0.1000
     18 C18       -12.3877   -2.7164   53.2362 C.3     1  ZINC000463741321   -0.1300
     19 C19       -11.6524   -2.9131   51.9076 C.3     1  ZINC000463741321   -0.1200
     20 C20       -10.6869   -1.7463   51.6869 C.3     1  ZINC000463741321    0.0600
     21 N21        -9.7253   -1.6888   52.7953 N.3     1  ZINC000463741321   -0.4800
     22 C22        -8.7487   -0.7182   52.5606 C.ar    1  ZINC000463741321    0.1100
     23 C23        -7.4548   -1.0988   52.2275 C.ar    1  ZINC000463741321   -0.1700
     24 C24        -6.4918   -0.1366   51.9956 C.ar    1  ZINC000463741321   -0.0900
     25 C25        -6.8140    1.2045   52.0951 C.ar    1  ZINC000463741321   -0.1500
     26 C26        -8.1010    1.5869   52.4264 C.ar    1  ZINC000463741321   -0.0900
     27 C27        -9.0704    0.6299   52.6541 C.ar    1  ZINC000463741321   -0.1400
     28 C28       -10.4037   -1.4535   54.0762 C.3     1  ZINC000463741321    0.0500
     29 H29       -11.9005   -1.6804   58.2752 H       1  ZINC000463741321    0.0600
     30 H30       -12.8541   -2.4282   59.5789 H       1  ZINC000463741321    0.0700
     31 H31       -11.5528   -3.3491   58.7876 H       1  ZINC000463741321    0.0600
     32 H32       -14.1186   -1.1353   57.7804 H       1  ZINC000463741321    0.0700
     33 H33       -14.6548   -2.0069   56.3239 H       1  ZINC000463741321    0.0700
     34 H34       -16.5752   -2.0339   57.6991 H       1  ZINC000463741321    0.0800
     35 H35       -15.8352   -3.6224   58.0111 H       1  ZINC000463741321    0.0800
     36 H36       -14.9342   -4.1572   60.1458 H       1  ZINC000463741321    0.1300
     37 H37       -14.7388   -3.5977   62.5354 H       1  ZINC000463741321    0.1300
     38 H38       -15.2873   -1.3294   63.3190 H       1  ZINC000463741321    0.1300
     39 H39       -16.0320    0.3822   61.7132 H       1  ZINC000463741321    0.1400
     40 H40       -12.0996   -1.4665   55.9966 H       1  ZINC000463741321    0.4000
     41 H41       -13.0446   -3.5669   53.4183 H       1  ZINC000463741321    0.0700
     42 H42       -12.9782   -1.8012   53.1937 H       1  ZINC000463741321    0.0600
     43 H43       -11.0928   -3.8480   51.9363 H       1  ZINC000463741321    0.0800
     44 H44       -12.3757   -2.9460   51.0928 H       1  ZINC000463741321    0.0800
     45 H45       -10.1514   -1.8906   50.7486 H       1  ZINC000463741321    0.0900
     46 H46       -11.2486   -0.8131   51.6445 H       1  ZINC000463741321    0.0500
     47 H47        -7.2024   -2.1461   52.1504 H       1  ZINC000463741321    0.1200
     48 H48        -5.4857   -0.4318   51.7367 H       1  ZINC000463741321    0.1200
     49 H49        -6.0587    1.9549   51.9140 H       1  ZINC000463741321    0.1200
     50 H50        -8.3493    2.6352   52.5034 H       1  ZINC000463741321    0.1200
     51 H51       -10.0753    0.9292   52.9125 H       1  ZINC000463741321    0.1300
     52 H52       -10.9669   -0.5219   54.0232 H       1  ZINC000463741321    0.0500
     53 H53        -9.6625   -1.3850   54.8725 H       1  ZINC000463741321    0.0900
@<TRIPOS>BOND
     1     1     2    1
     2     1    29    1
     3     1    30    1
     4     1    31    1
     5     2     3    1
     6     2     4    1
     7     2    13    1
     8     4     5    1
     9     4    32    1
    10     4    33    1
    11     5     6    1
    12     5    34    1
    13     5    35    1
    14     6    11   ar
    15     6     7   ar
    16     7     8   ar
    17     7    36    1
    18     8     9   ar
    19     8    37    1
    20     9    10   ar
    21     9    38    1
    22    10    11   ar
    23    10    39    1
    24    11    12    1
    25    13    14    2
    26    13    15   am
    27    15    16    1
    28    15    40    1
    29    16    17    1
    30    16    28    1
    31    16    18    1
    32    18    19    1
    33    18    41    1
    34    18    42    1
    35    19    20    1
    36    19    43    1
    37    19    44    1
    38    20    21    1
    39    20    45    1
    40    20    46    1
    41    21    22    1
    42    21    28    1
    43    22    27   ar
    44    22    23   ar
    45    23    24   ar
    46    23    47    1
    47    24    25   ar
    48    24    48    1
    49    25    26   ar
    50    25    49    1
    51    26    27   ar
    52    26    50    1
    53    27    51    1
    54    28    52    1
    55    28    53    1
@<TRIPOS>SUBSTRUCTURE
     1 ZINC000463741321        1 TEMP              0 ****  ****    0 ROOT


##########                                Name:    ZINC000892389374
##########                DOCK_Rotatable_Bonds:                   6
##########                         Heavy_Atoms:                  25
##########                    Molecular_Weight:             371.383
##########                DOCK_Rotatable_Bonds:                   6
##########                       Formal_Charge:          -0.0199998
##########                     HBond_Acceptors:                   9
##########                        HBond_Donors:                   1
##########                         Heavy_Atoms:                  25
##########                          Grid_Score:          -30.179195
##########                     Grid_vdw_energy:          -29.159315
##########                      Grid_es_energy:           -1.019881
##########           Internal_energy_repulsive:           11.327764

@<TRIPOS>MOLECULE
ZINC000892389374
 41 43 1 0 0
SMALL
USER_CHARGES


@<TRIPOS>ATOM
      1 C1        -12.7544   -4.5804   54.7637 C.3     1  ZINC000892389374   -0.1000
      2 C2        -12.1173   -3.8589   55.9234 C.ar    1  ZINC000892389374   -0.1800
      3 C3        -11.5415   -4.5792   56.9518 C.ar    1  ZINC000892389374   -0.0400
      4 C4        -10.9560   -3.9214   58.0166 C.ar    1  ZINC000892389374   -0.2100
      5 C5        -10.9451   -2.5330   58.0564 C.ar    1  ZINC000892389374    0.2200
      6 N6        -10.3519   -1.8678   59.1354 N.am    1  ZINC000892389374   -0.5700
      7 C7         -9.1242   -1.0601   59.0720 C.3     1  ZINC000892389374    0.0600
      8 C8         -8.9310   -0.5716   60.5205 C.3     1  ZINC000892389374    0.0400
      9 O9        -10.0582   -1.1491   61.2408 O.3     1  ZINC000892389374   -0.3200
     10 C10       -10.8129   -1.8580   60.3936 C.2     1  ZINC000892389374    0.6400
     11 O11       -11.8197   -2.4463   60.7356 O.2     1  ZINC000892389374   -0.5000
     12 C12       -11.5225   -1.8062   57.0251 C.ar    1  ZINC000892389374   -0.2300
     13 C13       -12.1047   -2.4694   55.9542 C.ar    1  ZINC000892389374    0.2400
     14 N14       -12.6871   -1.7417   54.9142 N.pl3   1  ZINC000892389374   -0.7400
     15 C15       -12.0771   -0.4872   54.4667 C.3     1  ZINC000892389374    0.2000
     16 C16       -10.8337   -0.7890   53.6707 C.2     1  ZINC000892389374   -0.2400
     17 C17       -10.6748   -1.8032   52.8150 C.2     1  ZINC000892389374    0.0600
     18 N18        -9.4900   -1.8529   52.2403 N.2     1  ZINC000892389374   -0.4500
     19 C19        -8.6405   -0.9371   52.5636 C.2     1  ZINC000892389374    0.0200
     20 C20        -7.2410   -0.8267   52.0157 C.3     1  ZINC000892389374   -0.0900
     21 C21        -6.8026    0.6391   52.0282 C.3     1  ZINC000892389374    0.4600
     22 F22        -5.6236    0.7796   51.2882 F       1  ZINC000892389374   -0.1800
     23 F23        -7.8065    1.4310   51.4607 F       1  ZINC000892389374   -0.1800
     24 F24        -6.5766    1.0470   53.3472 F       1  ZINC000892389374   -0.1700
     25 S25        -9.3350    0.1371   53.6980 S.3     1  ZINC000892389374    0.1900
     26 H26       -12.0080   -4.7514   53.9879 H       1  ZINC000892389374    0.0700
     27 H27       -13.1503   -5.5371   55.1042 H       1  ZINC000892389374    0.0700
     28 H28       -13.5655   -3.9743   54.3601 H       1  ZINC000892389374    0.0600
     29 H29       -11.5492   -5.6588   56.9237 H       1  ZINC000892389374    0.1300
     30 H30       -10.5066   -4.4875   58.8192 H       1  ZINC000892389374    0.1200
     31 H31        -8.2788   -1.6726   58.7585 H       1  ZINC000892389374    0.1000
     32 H32        -9.2567   -0.2145   58.3971 H       1  ZINC000892389374    0.1000
     33 H33        -7.9890   -0.9408   60.9259 H       1  ZINC000892389374    0.1100
     34 H34        -8.9666    0.5169   60.5646 H       1  ZINC000892389374    0.1100
     35 H35       -11.5156   -0.7266   57.0540 H       1  ZINC000892389374    0.1600
     36 H36       -13.4955   -2.0669   54.4879 H       1  ZINC000892389374    0.4000
     37 H37       -12.7847    0.0585   53.8425 H       1  ZINC000892389374    0.0900
     38 H38       -11.8151    0.1190   55.3339 H       1  ZINC000892389374    0.0800
     39 H39       -11.4537   -2.5230   52.6111 H       1  ZINC000892389374    0.1800
     40 H40        -6.5616   -1.4144   52.6331 H       1  ZINC000892389374    0.1300
     41 H41        -7.2202   -1.2034   50.9930 H       1  ZINC000892389374    0.1400
@<TRIPOS>BOND
     1     1     2    1
     2     1    26    1
     3     1    27    1
     4     1    28    1
     5     2    13   ar
     6     2     3   ar
     7     3     4   ar
     8     3    29    1
     9     4     5   ar
    10     4    30    1
    11     5     6    1
    12     5    12   ar
    13     6    10   am
    14     6     7    1
    15     7     8    1
    16     7    31    1
    17     7    32    1
    18     8     9    1
    19     8    33    1
    20     8    34    1
    21     9    10    1
    22    10    11    2
    23    12    13   ar
    24    12    35    1
    25    13    14    1
    26    14    15    1
    27    14    36    1
    28    15    16    1
    29    15    37    1
    30    15    38    1
    31    16    25    1
    32    16    17    2
    33    17    18    1
    34    17    39    1
    35    18    19    2
    36    19    20    1
    37    19    25    1
    38    20    21    1
    39    20    40    1
    40    20    41    1
    41    21    22    1
    42    21    23    1
    43    21    24    1
@<TRIPOS>SUBSTRUCTURE
     1 ZINC000892389374        1 TEMP              0 ****  ****    0 ROOT


##########                                Name:    ZINC000441887161
##########                DOCK_Rotatable_Bonds:                   6
##########                         Heavy_Atoms:                  27
##########                    Molecular_Weight:             383.514
##########                DOCK_Rotatable_Bonds:                   6
##########                       Formal_Charge:          -0.0300002
##########                     HBond_Acceptors:                   6
##########                        HBond_Donors:                   1
##########                         Heavy_Atoms:                  27
##########                          Grid_Score:          -30.151348
##########                     Grid_vdw_energy:          -30.158812
##########                      Grid_es_energy:            0.007464
##########           Internal_energy_repulsive:           17.582277

@<TRIPOS>MOLECULE
ZINC000441887161
 52 54 1 0 0
SMALL
USER_CHARGES


@<TRIPOS>ATOM
      1 C1        -14.7851    1.1680   59.0774 C.3     1  ZINC000441887161   -0.1200
      2 C2        -13.9235    0.3225   58.1752 C.ar    1  ZINC000441887161   -0.0700
      3 C3        -14.5068   -0.4565   57.1939 C.ar    1  ZINC000441887161   -0.1200
      4 C4        -13.7163   -1.2321   56.3661 C.ar    1  ZINC000441887161   -0.0900
      5 C5        -12.3428   -1.2281   56.5197 C.ar    1  ZINC000441887161   -0.1100
      6 C6        -11.4812   -2.0738   55.6178 C.3     1  ZINC000441887161    0.1900
      7 H7        -10.5360   -1.5629   55.4344 H       1  ZINC000441887161    0.1000
      8 C8        -11.2105   -3.4220   56.2886 C.3     1  ZINC000441887161    0.1000
      9 N9        -12.4782   -4.1245   56.5023 N.pl3   1  ZINC000441887161   -0.4600
     10 C10       -13.0845   -4.9892   55.6314 C.2     1  ZINC000441887161   -0.0500
     11 C11       -14.2215   -5.4038   56.2221 C.2     1  ZINC000441887161   -0.0200
     12 N12       -14.3072   -4.8083   57.4209 N.2     1  ZINC000441887161   -0.4900
     13 C13       -13.2639   -4.0445   57.5977 C.2     1  ZINC000441887161    0.1800
     14 N14       -12.1734   -2.2918   54.3451 N.am    1  ZINC000441887161   -1.1100
     15 S15       -11.3008   -2.5584   52.9631 S.o2    1  ZINC000441887161    2.6900
     16 O16       -10.4210   -3.6377   53.2461 O.2     1  ZINC000441887161   -0.9600
     17 O17       -12.2377   -2.5789   51.8949 O.2     1  ZINC000441887161   -0.9500
     18 C18       -10.2846   -1.1422   52.7065 C.ar    1  ZINC000441887161   -0.6800
     19 C19       -10.8123    0.1253   52.8659 C.ar    1  ZINC000441887161   -0.0300
     20 C20       -10.0150    1.2365   52.6645 C.ar    1  ZINC000441887161   -0.1300
     21 C21        -8.6898    1.0802   52.3043 C.ar    1  ZINC000441887161   -0.0200
     22 C22        -7.8207    2.2915   52.0843 C.3     1  ZINC000441887161   -0.1300
     23 C23        -8.1614   -0.1877   52.1462 C.ar    1  ZINC000441887161   -0.1000
     24 C24        -6.7164   -0.3583   51.7539 C.3     1  ZINC000441887161   -0.1200
     25 C25        -8.9576   -1.2986   52.3513 C.ar    1  ZINC000441887161   -0.0100
     26 C26       -11.7592   -0.4477   57.5004 C.ar    1  ZINC000441887161   -0.0700
     27 C27       -10.2615   -0.4429   57.6676 C.3     1  ZINC000441887161   -0.1300
     28 C28       -12.5491    0.3305   58.3254 C.ar    1  ZINC000441887161   -0.1200
     29 H29       -14.9246    2.1517   58.6293 H       1  ZINC000441887161    0.0700
     30 H30       -15.7547    0.6876   59.2085 H       1  ZINC000441887161    0.0700
     31 H31       -14.2991    1.2760   60.0471 H       1  ZINC000441887161    0.0700
     32 H32       -15.5802   -0.4597   57.0738 H       1  ZINC000441887161    0.1200
     33 H33       -14.1723   -1.8414   55.5997 H       1  ZINC000441887161    0.1200
     34 H34       -10.5653   -4.0234   55.6482 H       1  ZINC000441887161    0.1100
     35 H35       -10.7196   -3.2584   57.2480 H       1  ZINC000441887161    0.1000
     36 H36       -12.7210   -5.2825   54.6576 H       1  ZINC000441887161    0.1700
     37 H37       -14.9386   -6.0945   55.8038 H       1  ZINC000441887161    0.1600
     38 H38       -13.0652   -3.4429   58.4723 H       1  ZINC000441887161    0.2000
     39 H39       -13.1427   -2.2800   54.3120 H       1  ZINC000441887161    0.4200
     40 H40       -11.8478    0.2475   53.1473 H       1  ZINC000441887161    0.1300
     41 H41       -10.4276    2.2269   52.7883 H       1  ZINC000441887161    0.1300
     42 H42        -7.3429    2.5712   53.0232 H       1  ZINC000441887161    0.0800
     43 H43        -7.0562    2.0603   51.3424 H       1  ZINC000441887161    0.0800
     44 H44        -8.4342    3.1190   51.7281 H       1  ZINC000441887161    0.0700
     45 H45        -6.1001   -0.4114   52.6514 H       1  ZINC000441887161    0.0800
     46 H46        -6.6019   -1.2775   51.1796 H       1  ZINC000441887161    0.0700
     47 H47        -6.4020    0.4909   51.1471 H       1  ZINC000441887161    0.0700
     48 H48        -8.5448   -2.2890   52.2277 H       1  ZINC000441887161    0.1400
     49 H49        -9.8288    0.3394   57.0439 H       1  ZINC000441887161    0.0800
     50 H50       -10.0130   -0.2539   58.7119 H       1  ZINC000441887161    0.0700
     51 H51        -9.8594   -1.4106   57.3679 H       1  ZINC000441887161    0.0600
     52 H52       -12.0932    0.9402   59.0916 H       1  ZINC000441887161    0.1300
@<TRIPOS>BOND
     1     1     2    1
     2     1    29    1
     3     1    30    1
     4     1    31    1
     5     2    28   ar
     6     2     3   ar
     7     3     4   ar
     8     3    32    1
     9     4     5   ar
    10     4    33    1
    11     5     6    1
    12     5    26   ar
    13     6     7    1
    14     6     8    1
    15     6    14    1
    16     8     9    1
    17     8    34    1
    18     8    35    1
    19     9    13    1
    20     9    10    1
    21    10    11    2
    22    10    36    1
    23    11    12    1
    24    11    37    1
    25    12    13    2
    26    13    38    1
    27    14    15   am
    28    14    39    1
    29    15    16    2
    30    15    17    2
    31    15    18    1
    32    18    25   ar
    33    18    19   ar
    34    19    20   ar
    35    19    40    1
    36    20    21   ar
    37    20    41    1
    38    21    22    1
    39    21    23   ar
    40    22    42    1
    41    22    43    1
    42    22    44    1
    43    23    24    1
    44    23    25   ar
    45    24    45    1
    46    24    46    1
    47    24    47    1
    48    25    48    1
    49    26    27    1
    50    26    28   ar
    51    27    49    1
    52    27    50    1
    53    27    51    1
    54    28    52    1
@<TRIPOS>SUBSTRUCTURE
     1 ZINC000441887161        1 TEMP              0 ****  ****    0 ROOT


##########                                Name:    ZINC000842947763
##########                DOCK_Rotatable_Bonds:                   7
##########                         Heavy_Atoms:                  24
##########                    Molecular_Weight:             365.373
##########                DOCK_Rotatable_Bonds:                   7
##########                       Formal_Charge:          0.00999997
##########                     HBond_Acceptors:                   9
##########                        HBond_Donors:                   0
##########                         Heavy_Atoms:                  24
##########                          Grid_Score:          -30.140669
##########                     Grid_vdw_energy:          -28.488422
##########                      Grid_es_energy:           -1.652247
##########           Internal_energy_repulsive:           31.843407

@<TRIPOS>MOLECULE
ZINC000842947763
 42 43 1 0 0
SMALL
USER_CHARGES


@<TRIPOS>ATOM
      1 C1        -12.3241   -0.1757   51.5658 C.3     1  ZINC000842947763   -0.1600
      2 C2        -11.9083   -1.2273   52.5964 C.3     1  ZINC000842947763   -0.1000
      3 H3        -11.9816   -0.8035   53.5979 H       1  ZINC000842947763    0.1000
      4 C4        -10.4649   -1.6595   52.3301 C.3     1  ZINC000842947763    0.0800
      5 O5         -9.5895   -0.5045   52.4193 O.3     1  ZINC000842947763   -0.3500
      6 C6         -8.2829   -0.7055   52.1579 C.2     1  ZINC000842947763    0.5200
      7 O7         -7.9119   -1.7665   51.6961 O.2     1  ZINC000842947763   -0.5100
      8 C8         -7.3038    0.3614   52.4324 C.ar    1  ZINC000842947763   -0.1600
      9 C9         -6.1703    0.5018   51.6256 C.ar    1  ZINC000842947763   -0.0200
     10 C10        -5.2617    1.4985   51.8867 C.ar    1  ZINC000842947763   -0.1700
     11 C11        -5.4633    2.3770   52.9582 C.ar    1  ZINC000842947763    0.2000
     12 C12        -6.5931    2.2293   53.7543 C.ar    1  ZINC000842947763   -0.1500
     13 C13        -7.5045    1.2440   53.4980 C.ar    1  ZINC000842947763   -0.0100
     14 C14        -6.5659    3.2963   54.8264 C.3     1  ZINC000842947763   -0.0800
     15 C15        -5.2745    4.0838   54.5511 C.3     1  ZINC000842947763    0.1100
     16 N16        -4.6719    3.4375   53.3825 N.am    1  ZINC000842947763   -0.9400
     17 S17        -3.2516    3.9035   52.6700 S.o2    1  ZINC000842947763    2.6100
     18 C18        -2.0103    3.7350   53.9820 C.3     1  ZINC000842947763   -0.6700
     19 O19        -3.0359    2.9355   51.6522 O.2     1  ZINC000842947763   -0.9300
     20 O20        -3.4537    5.2726   52.3479 O.2     1  ZINC000842947763   -0.9400
     21 C21       -12.8325   -2.4416   52.4875 C.3     1  ZINC000842947763   -0.1600
     22 C22       -12.4842   -3.4476   53.5864 C.3     1  ZINC000842947763    0.4600
     23 F23       -11.9367   -2.7710   54.6816 F       1  ZINC000842947763   -0.1800
     24 F24       -13.6433   -4.1214   53.9864 F       1  ZINC000842947763   -0.1800
     25 F25       -11.5542   -4.3705   53.0961 F       1  ZINC000842947763   -0.1800
     26 H26       -13.2972    0.2338   51.8370 H       1  ZINC000842947763    0.0700
     27 H27       -11.5854    0.6255   51.5457 H       1  ZINC000842947763    0.0700
     28 H28       -12.3862   -0.6374   50.5803 H       1  ZINC000842947763    0.0600
     29 H29       -10.1650   -2.4007   53.0708 H       1  ZINC000842947763    0.0800
     30 H30       -10.3937   -2.0931   51.3325 H       1  ZINC000842947763    0.0800
     31 H31        -6.0090   -0.1731   50.7980 H       1  ZINC000842947763    0.1500
     32 H32        -4.3871    1.6050   51.2621 H       1  ZINC000842947763    0.1500
     33 H33        -8.3778    1.1416   54.1250 H       1  ZINC000842947763    0.1400
     34 H34        -7.4353    3.9477   54.7373 H       1  ZINC000842947763    0.1000
     35 H35        -6.5304    2.8408   55.8161 H       1  ZINC000842947763    0.1000
     36 H36        -5.5068    5.1254   54.3293 H       1  ZINC000842947763    0.1000
     37 H37        -4.6026    4.0195   55.4071 H       1  ZINC000842947763    0.0900
     38 H38        -1.9760    2.6987   54.3187 H       1  ZINC000842947763    0.1300
     39 H39        -1.0326    4.0243   53.5966 H       1  ZINC000842947763    0.1400
     40 H40        -2.2765    4.3803   54.8192 H       1  ZINC000842947763    0.1300
     41 H41       -13.8681   -2.1217   52.6029 H       1  ZINC000842947763    0.1200
     42 H42       -12.7035   -2.9102   51.5118 H       1  ZINC000842947763    0.1100
@<TRIPOS>BOND
     1     1     2    1
     2     1    26    1
     3     1    27    1
     4     1    28    1
     5     2     3    1
     6     2     4    1
     7     2    21    1
     8     4     5    1
     9     4    29    1
    10     4    30    1
    11     5     6    1
    12     6     7    2
    13     6     8    1
    14     8    13   ar
    15     8     9   ar
    16     9    10   ar
    17     9    31    1
    18    10    11   ar
    19    10    32    1
    20    11    16    1
    21    11    12   ar
    22    12    13   ar
    23    12    14    1
    24    13    33    1
    25    14    15    1
    26    14    34    1
    27    14    35    1
    28    15    16    1
    29    15    36    1
    30    15    37    1
    31    16    17   am
    32    17    18    1
    33    17    19    2
    34    17    20    2
    35    18    38    1
    36    18    39    1
    37    18    40    1
    38    21    22    1
    39    21    41    1
    40    21    42    1
    41    22    23    1
    42    22    24    1
    43    22    25    1
@<TRIPOS>SUBSTRUCTURE
     1 ZINC000842947763        1 TEMP              0 ****  ****    0 ROOT


##########                                Name:    ZINC000482910431
##########                DOCK_Rotatable_Bonds:                   7
##########                         Heavy_Atoms:                  29
##########                    Molecular_Weight:             414.867
##########                DOCK_Rotatable_Bonds:                   7
##########                       Formal_Charge:          -0.0300001
##########                     HBond_Acceptors:                   8
##########                        HBond_Donors:                   2
##########                         Heavy_Atoms:                  29
##########                          Grid_Score:          -30.118774
##########                     Grid_vdw_energy:          -28.254230
##########                      Grid_es_energy:           -1.864543
##########           Internal_energy_repulsive:           16.036928

@<TRIPOS>MOLECULE
ZINC000482910431
 49 51 1 0 0
SMALL
USER_CHARGES


@<TRIPOS>ATOM
      1 C1        -11.5508    0.6728   52.2799 C.3     1  ZINC000482910431   -0.1500
      2 C2        -10.8167   -0.4152   53.0660 C.3     1  ZINC000482910431    0.0800
      3 C3        -11.0524   -0.2093   54.5637 C.3     1  ZINC000482910431   -0.1400
      4 C4        -11.3258   -1.7373   52.6665 C.1     1  ZINC000482910431    0.2100
      5 N5        -11.7187   -2.7577   52.3581 N.1     1  ZINC000482910431   -0.4300
      6 C6         -9.3404   -0.3364   52.7743 C.ar    1  ZINC000482910431   -0.1000
      7 C7         -8.5334    0.5021   53.5211 C.ar    1  ZINC000482910431   -0.0900
      8 C8         -7.1798    0.5763   53.2566 C.ar    1  ZINC000482910431   -0.1200
      9 C9         -6.6295   -0.1924   52.2395 C.ar    1  ZINC000482910431    0.1700
     10 N10        -5.2582   -0.1198   51.9693 N.am    1  ZINC000482910431   -0.6800
     11 C11        -4.7027    1.0555   51.6142 C.2     1  ZINC000482910431    0.7100
     12 O12        -5.3928    2.0529   51.5284 O.2     1  ZINC000482910431   -0.5500
     13 N13        -3.3821    1.1254   51.3539 N.am    1  ZINC000482910431   -0.7300
     14 C14        -2.7785    2.4027   50.9662 C.3     1  ZINC000482910431    0.1400
     15 H15        -3.5471    3.1663   50.8469 H       1  ZINC000482910431    0.1400
     16 C16        -1.7322    2.8471   52.0144 C.3     1  ZINC000482910431   -0.1400
     17 C17        -0.6507    3.4979   51.1236 C.3     1  ZINC000482910431    0.0900
     18 N18        -0.7936    2.8636   49.8078 N.am    1  ZINC000482910431   -0.5600
     19 C19         0.1820    2.8975   48.8047 C.ar    1  ZINC000482910431    0.2000
     20 C20         1.0268    1.8112   48.6196 C.ar    1  ZINC000482910431   -0.1600
     21 C21         1.9893    1.8459   47.6291 C.ar    1  ZINC000482910431   -0.0500
     22 C22         2.1127    2.9616   46.8211 C.ar    1  ZINC000482910431   -0.1000
     23 Cl23        3.3234    3.0015   45.5775 Cl      1  ZINC000482910431   -0.0500
     24 C24         1.2708    4.0478   47.0026 C.ar    1  ZINC000482910431    0.1400
     25 F25         1.3927    5.1364   46.2119 F       1  ZINC000482910431   -0.1200
     26 C26         0.3025    4.0151   47.9895 C.ar    1  ZINC000482910431   -0.1900
     27 C27        -1.9844    2.2467   49.6880 C.2     1  ZINC000482910431    0.5000
     28 O28        -2.3619    1.6507   48.7013 O.2     1  ZINC000482910431   -0.4800
     29 C29        -7.4426   -1.0335   51.4912 C.ar    1  ZINC000482910431   -0.1400
     30 C30        -8.7944   -1.1071   51.7642 C.ar    1  ZINC000482910431   -0.0900
     31 H31       -11.1738    1.6518   52.5757 H       1  ZINC000482910431    0.0800
     32 H32       -11.3829    0.5261   51.2128 H       1  ZINC000482910431    0.0700
     33 H33       -12.6187    0.6158   52.4908 H       1  ZINC000482910431    0.0700
     34 H34       -12.1203   -0.2663   54.7746 H       1  ZINC000482910431    0.0700
     35 H35       -10.5294   -0.9844   55.1238 H       1  ZINC000482910431    0.0700
     36 H36       -10.6754    0.7697   54.8595 H       1  ZINC000482910431    0.0800
     37 H37        -8.9620    1.1000   54.3119 H       1  ZINC000482910431    0.1400
     38 H38        -6.5502    1.2317   53.8401 H       1  ZINC000482910431    0.1400
     39 H39        -4.7078   -0.9156   52.0376 H       1  ZINC000482910431    0.4100
     40 H40        -2.8314    0.3300   51.4234 H       1  ZINC000482910431    0.4000
     41 H41        -2.1574    3.5745   52.7059 H       1  ZINC000482910431    0.1100
     42 H42        -1.3298    1.9887   52.5522 H       1  ZINC000482910431    0.1000
     43 H43        -0.8223    4.5714   51.0454 H       1  ZINC000482910431    0.0900
     44 H44         0.3413    3.3023   51.5309 H       1  ZINC000482910431    0.1000
     45 H45         0.9317    0.9395   49.2500 H       1  ZINC000482910431    0.1700
     46 H46         2.6464    1.0008   47.4858 H       1  ZINC000482910431    0.1500
     47 H47        -0.3540    4.8609   48.1311 H       1  ZINC000482910431    0.1500
     48 H48        -7.0175   -1.6326   50.6995 H       1  ZINC000482910431    0.1300
     49 H49        -9.4273   -1.7614   51.1829 H       1  ZINC000482910431    0.1300
@<TRIPOS>BOND
     1     1     2    1
     2     1    31    1
     3     1    32    1
     4     1    33    1
     5     2     3    1
     6     2     4    1
     7     2     6    1
     8     3    34    1
     9     3    35    1
    10     3    36    1
    11     4     5    3
    12     6    30   ar
    13     6     7   ar
    14     7     8   ar
    15     7    37    1
    16     8     9   ar
    17     8    38    1
    18     9    10    1
    19     9    29   ar
    20    10    11   am
    21    10    39    1
    22    11    12    2
    23    11    13   am
    24    13    14    1
    25    13    40    1
    26    14    15    1
    27    14    27    1
    28    14    16    1
    29    16    17    1
    30    16    41    1
    31    16    42    1
    32    17    18    1
    33    17    43    1
    34    17    44    1
    35    18    19    1
    36    18    27   am
    37    19    26   ar
    38    19    20   ar
    39    20    21   ar
    40    20    45    1
    41    21    22   ar
    42    21    46    1
    43    22    23    1
    44    22    24   ar
    45    24    25    1
    46    24    26   ar
    47    26    47    1
    48    27    28    2
    49    29    30   ar
    50    29    48    1
    51    30    49    1
@<TRIPOS>SUBSTRUCTURE
     1 ZINC000482910431        1 TEMP              0 ****  ****    0 ROOT


##########                                Name:    ZINC000826052721
##########                DOCK_Rotatable_Bonds:                   3
##########                         Heavy_Atoms:                  29
##########                    Molecular_Weight:             393.399
##########                DOCK_Rotatable_Bonds:                   3
##########                       Formal_Charge:        -4.47035e-07
##########                     HBond_Acceptors:                   9
##########                        HBond_Donors:                   2
##########                         Heavy_Atoms:                  29
##########                          Grid_Score:          -30.107595
##########                     Grid_vdw_energy:          -26.249962
##########                      Grid_es_energy:           -3.857634
##########           Internal_energy_repulsive:           19.315540

@<TRIPOS>MOLECULE
ZINC000826052721
 46 50 1 0 0
SMALL
USER_CHARGES


@<TRIPOS>ATOM
      1 C1         -8.6900    1.1225   57.4856 C.3     1  ZINC000826052721   -0.0400
      2 N2         -8.0902    2.0825   56.5493 N.4     1  ZINC000826052721   -0.3800
      3 H3         -7.0881    2.0874   56.6666 H       1  ZINC000826052721    0.4300
      4 C4         -8.6215    3.4227   56.8134 C.3     1  ZINC000826052721    0.0500
      5 C5         -8.1366    4.3988   55.7744 C.ar    1  ZINC000826052721   -0.1300
      6 C6         -8.2005    5.7547   56.0575 C.ar    1  ZINC000826052721   -0.1000
      7 C7         -7.7714    6.6823   55.1292 C.ar    1  ZINC000826052721   -0.1000
      8 C8         -7.2754    6.2586   53.9106 C.ar    1  ZINC000826052721   -0.0800
      9 C9         -7.2097    4.9086   53.6274 C.ar    1  ZINC000826052721   -0.0800
     10 C10        -7.6391    3.9770   54.5592 C.ar    1  ZINC000826052721   -0.1200
     11 C11        -7.5477    2.5128   54.2131 C.3     1  ZINC000826052721    0.1100
     12 H12        -6.5124    2.1834   54.3018 H       1  ZINC000826052721    0.1100
     13 N13        -8.0093    2.3071   52.8338 N.3     1  ZINC000826052721   -0.6200
     14 C14        -8.0535    0.9610   52.5218 C.ar    1  ZINC000826052721    0.1600
     15 C15        -6.9101    0.2819   52.0872 C.ar    1  ZINC000826052721   -0.0400
     16 C16        -5.6241    0.9966   51.9528 C.2     1  ZINC000826052721    0.0700
     17 N17        -4.4340    0.4561   51.6807 N.2     1  ZINC000826052721   -0.3800
     18 N18        -3.5725    1.4147   51.6460 N.2     1  ZINC000826052721   -0.1600
     19 N19        -4.1663    2.5293   51.8928 N.2     1  ZINC000826052721   -0.1700
     20 N20        -5.4220    2.3098   52.0852 N.pl3   1  ZINC000826052721   -0.3400
     21 C21        -6.9954   -1.0848   51.7850 C.ar    1  ZINC000826052721    0.1800
     22 N22        -8.1225   -1.7427   51.8900 N.ar    1  ZINC000826052721   -0.4700
     23 C23        -9.2537   -1.1503   52.2953 C.ar    1  ZINC000826052721    0.0900
     24 C24       -10.4516   -1.8808   52.3975 C.ar    1  ZINC000826052721    0.1700
     25 F25       -10.4721   -3.1954   52.0871 F       1  ZINC000826052721   -0.1100
     26 C26       -11.5919   -1.2579   52.8117 C.ar    1  ZINC000826052721   -0.1900
     27 C27       -11.5917    0.0974   53.1365 C.ar    1  ZINC000826052721    0.1300
     28 F28       -12.7373    0.6868   53.5434 F       1  ZINC000826052721   -0.1300
     29 C29       -10.4474    0.8363   53.0478 C.ar    1  ZINC000826052721   -0.1500
     30 C30        -9.2580    0.2258   52.6257 C.ar    1  ZINC000826052721   -0.0600
     31 C31        -8.4230    1.7008   55.1687 C.3     1  ZINC000826052721    0.0000
     32 H32        -9.7723    1.1156   57.3553 H       1  ZINC000826052721    0.1200
     33 H33        -8.2940    0.1263   57.2880 H       1  ZINC000826052721    0.1300
     34 H34        -8.4490    1.4131   58.5080 H       1  ZINC000826052721    0.1200
     35 H35        -8.2913    3.7527   57.7985 H       1  ZINC000826052721    0.1400
     36 H36        -9.7108    3.3879   56.7933 H       1  ZINC000826052721    0.1400
     37 H37        -8.5876    6.0869   57.0095 H       1  ZINC000826052721    0.1300
     38 H38        -7.8230    7.7371   55.3548 H       1  ZINC000826052721    0.1300
     39 H39        -6.9397    6.9816   53.1818 H       1  ZINC000826052721    0.1300
     40 H40        -6.8215    4.5772   52.6756 H       1  ZINC000826052721    0.1400
     41 H41        -7.4297    2.8110   52.1796 H       1  ZINC000826052721    0.4100
     42 H42        -6.1100   -1.6068   51.4534 H       1  ZINC000826052721    0.1800
     43 H43       -12.5089   -1.8232   52.8888 H       1  ZINC000826052721    0.1600
     44 H44       -10.4583    1.8861   53.3012 H       1  ZINC000826052721    0.1400
     45 H45        -9.4738    1.9136   54.9725 H       1  ZINC000826052721    0.1400
     46 H46        -8.2298    0.6373   55.0275 H       1  ZINC000826052721    0.1400
@<TRIPOS>BOND
     1     1     2    1
     2     1    32    1
     3     1    33    1
     4     1    34    1
     5     2     3    1
     6     2    31    1
     7     2     4    1
     8     4     5    1
     9     4    35    1
    10     4    36    1
    11     5    10   ar
    12     5     6   ar
    13     6     7   ar
    14     6    37    1
    15     7     8   ar
    16     7    38    1
    17     8     9   ar
    18     8    39    1
    19     9    10   ar
    20     9    40    1
    21    10    11    1
    22    11    12    1
    23    11    13    1
    24    11    31    1
    25    13    14    1
    26    13    41    1
    27    14    30   ar
    28    14    15   ar
    29    15    16    1
    30    15    21   ar
    31    16    20    1
    32    16    17    2
    33    17    18    1
    34    18    19    2
    35    19    20    1
    36    21    22   ar
    37    21    42    1
    38    22    23   ar
    39    23    30   ar
    40    23    24   ar
    41    24    25    1
    42    24    26   ar
    43    26    27   ar
    44    26    43    1
    45    27    28    1
    46    27    29   ar
    47    29    30   ar
    48    29    44    1
    49    31    45    1
    50    31    46    1
@<TRIPOS>SUBSTRUCTURE
     1 ZINC000826052721        1 TEMP              0 ****  ****    0 ROOT


##########                                Name:    ZINC001009984555
##########                DOCK_Rotatable_Bonds:                   7
##########                         Heavy_Atoms:                  23
##########                    Molecular_Weight:             338.446
##########                DOCK_Rotatable_Bonds:                   7
##########                       Formal_Charge:           0.0400002
##########                     HBond_Acceptors:                   6
##########                        HBond_Donors:                   1
##########                         Heavy_Atoms:                  23
##########                          Grid_Score:          -30.057362
##########                     Grid_vdw_energy:          -28.736137
##########                      Grid_es_energy:           -1.321225
##########           Internal_energy_repulsive:           13.882921

@<TRIPOS>MOLECULE
ZINC001009984555
 46 47 1 0 0
SMALL
USER_CHARGES


@<TRIPOS>ATOM
      1 C1        -12.9945   -4.1365   55.3104 C.3     1  ZINC001009984555   -0.1400
      2 S2        -11.4787   -3.8601   56.2678 S.3     1  ZINC001009984555   -0.1800
      3 C3        -12.0625   -2.8903   57.6852 C.3     1  ZINC001009984555   -0.1300
      4 C4        -10.8947   -2.5449   58.5729 C.2     1  ZINC001009984555    0.5500
      5 O5        -10.5901   -3.2806   59.4877 O.2     1  ZINC001009984555   -0.5100
      6 N6        -10.1888   -1.4186   58.3501 N.am    1  ZINC001009984555   -0.6100
      7 C7        -10.4535   -0.4355   57.2840 C.3     1  ZINC001009984555    0.1000
      8 C8         -9.8409    0.8887   57.8047 C.3     1  ZINC001009984555   -0.1100
      9 H9        -10.5165    1.3840   58.5021 H       1  ZINC001009984555    0.1000
     10 C10        -9.4768    1.8178   56.6449 C.3     1  ZINC001009984555    0.1300
     11 N11        -8.6943    1.0765   55.6526 N.am    1  ZINC001009984555   -0.7300
     12 C12        -8.7114    1.4572   54.3598 C.2     1  ZINC001009984555    0.5600
     13 O13        -9.3750    2.4163   54.0175 O.2     1  ZINC001009984555   -0.5200
     14 C14        -7.9231    0.7081   53.3581 C.ar    1  ZINC001009984555   -0.1200
     15 C15        -8.3973   -0.5058   52.8588 C.ar    1  ZINC001009984555   -0.0900
     16 C16        -7.6577   -1.2010   51.9241 C.ar    1  ZINC001009984555   -0.1000
     17 C17        -6.4480   -0.6982   51.4811 C.ar    1  ZINC001009984555   -0.1200
     18 C18        -5.9703    0.5066   51.9722 C.ar    1  ZINC001009984555    0.0900
     19 F19        -4.7877    0.9919   51.5350 F       1  ZINC001009984555   -0.1300
     20 C20        -6.7048    1.2150   52.9038 C.ar    1  ZINC001009984555   -0.0500
     21 C21        -6.1853    2.5250   53.4376 C.3     1  ZINC001009984555   -0.1200
     22 C22        -8.5679    0.3787   58.5307 C.3     1  ZINC001009984555   -0.1200
     23 C23        -9.0312   -0.9638   59.1341 C.3     1  ZINC001009984555    0.1400
     24 H24        -8.2294   -1.6988   59.0625 H       1  ZINC001009984555    0.0800
     25 C25        -9.4268   -0.7670   60.5989 C.3     1  ZINC001009984555   -0.1700
     26 H26       -13.4178   -3.1765   55.0152 H       1  ZINC001009984555    0.0800
     27 H27       -12.7603   -4.7196   54.4197 H       1  ZINC001009984555    0.1100
     28 H28       -13.7159   -4.6795   55.9209 H       1  ZINC001009984555    0.0800
     29 H29       -12.5320   -1.9732   57.3293 H       1  ZINC001009984555    0.1100
     30 H30       -12.7885   -3.4743   58.2509 H       1  ZINC001009984555    0.1100
     31 H31        -9.9666   -0.7402   56.3576 H       1  ZINC001009984555    0.0800
     32 H32       -11.5266   -0.3223   57.1301 H       1  ZINC001009984555    0.0800
     33 H33       -10.3884    2.1945   56.1810 H       1  ZINC001009984555    0.0800
     34 H34        -8.8879    2.6544   57.0208 H       1  ZINC001009984555    0.0800
     35 H35        -8.1638    0.3119   55.9261 H       1  ZINC001009984555    0.4000
     36 H36        -9.3414   -0.9007   53.2039 H       1  ZINC001009984555    0.1300
     37 H37        -8.0245   -2.1404   51.5376 H       1  ZINC001009984555    0.1400
     38 H38        -5.8729   -1.2469   50.7499 H       1  ZINC001009984555    0.1400
     39 H39        -6.6375    3.3478   52.8838 H       1  ZINC001009984555    0.0800
     40 H40        -6.4407    2.6140   54.4935 H       1  ZINC001009984555    0.1000
     41 H41        -5.1021    2.5609   53.3214 H       1  ZINC001009984555    0.0600
     42 H42        -7.7544    0.2267   57.8214 H       1  ZINC001009984555    0.0900
     43 H43        -8.2700    1.0707   59.3184 H       1  ZINC001009984555    0.0900
     44 H44       -10.2408   -0.0445   60.6615 H       1  ZINC001009984555    0.0600
     45 H45        -9.7527   -1.7187   61.0183 H       1  ZINC001009984555    0.0700
     46 H46        -8.5690   -0.3971   61.1604 H       1  ZINC001009984555    0.0700
@<TRIPOS>BOND
     1     1     2    1
     2     1    26    1
     3     1    27    1
     4     1    28    1
     5     2     3    1
     6     3     4    1
     7     3    29    1
     8     3    30    1
     9     4     5    2
    10     4     6   am
    11     6    23    1
    12     6     7    1
    13     7     8    1
    14     7    31    1
    15     7    32    1
    16     8     9    1
    17     8    10    1
    18     8    22    1
    19    10    11    1
    20    10    33    1
    21    10    34    1
    22    11    12   am
    23    11    35    1
    24    12    13    2
    25    12    14    1
    26    14    20   ar
    27    14    15   ar
    28    15    16   ar
    29    15    36    1
    30    16    17   ar
    31    16    37    1
    32    17    18   ar
    33    17    38    1
    34    18    19    1
    35    18    20   ar
    36    20    21    1
    37    21    39    1
    38    21    40    1
    39    21    41    1
    40    22    23    1
    41    22    42    1
    42    22    43    1
    43    23    24    1
    44    23    25    1
    45    25    44    1
    46    25    45    1
    47    25    46    1
@<TRIPOS>SUBSTRUCTURE
     1 ZINC001009984555        1 TEMP              0 ****  ****    0 ROOT


##########                                Name:    ZINC000676564986
##########                DOCK_Rotatable_Bonds:                   5
##########                         Heavy_Atoms:                  25
##########                    Molecular_Weight:             347.444
##########                DOCK_Rotatable_Bonds:                   5
##########                       Formal_Charge:          -0.0100005
##########                     HBond_Acceptors:                   6
##########                        HBond_Donors:                   1
##########                         Heavy_Atoms:                  25
##########                          Grid_Score:          -30.047781
##########                     Grid_vdw_energy:          -30.267704
##########                      Grid_es_energy:            0.219923
##########           Internal_energy_repulsive:            6.071650

@<TRIPOS>MOLECULE
ZINC000676564986
 42 45 1 0 0
SMALL
USER_CHARGES


@<TRIPOS>ATOM
      1 C1         -5.5585    1.7807   51.9674 C.3     1  ZINC000676564986    0.0800
      2 N2         -6.4512    0.6195   51.9984 N.pl3   1  ZINC000676564986   -0.4800
      3 C3         -6.0922   -0.6796   51.7940 C.2     1  ZINC000676564986    0.2500
      4 N4         -7.1361   -1.4503   51.8940 N.2     1  ZINC000676564986   -0.4600
      5 C5         -8.2282   -0.6970   52.1680 C.ar    1  ZINC000676564986   -0.1100
      6 C6         -9.5903   -0.9708   52.3775 C.ar    1  ZINC000676564986    0.5100
      7 N7        -10.0685   -2.2683   52.3211 N.pl3   1  ZINC000676564986   -0.6900
      8 C8        -11.5085   -2.5141   52.2116 C.3     1  ZINC000676564986    0.1700
      9 C9        -12.0389   -2.9920   53.5388 C.ar    1  ZINC000676564986   -0.0800
     10 C10       -12.1609   -2.1050   54.5928 C.ar    1  ZINC000676564986   -0.1100
     11 C11       -12.6465   -2.5394   55.8102 C.ar    1  ZINC000676564986   -0.0700
     12 C12       -13.0126   -3.8697   55.9758 C.ar    1  ZINC000676564986   -0.1300
     13 S13       -13.6331   -4.4284   57.5273 S.3     1  ZINC000676564986   -0.0100
     14 C14       -14.5194   -3.0286   58.1271 C.ar    1  ZINC000676564986   -0.1000
     15 C15       -14.2579   -2.5310   59.3980 C.ar    1  ZINC000676564986   -0.1200
     16 C16       -14.9540   -1.4336   59.8646 C.ar    1  ZINC000676564986   -0.1000
     17 C17       -15.9105   -0.8296   59.0688 C.ar    1  ZINC000676564986   -0.1200
     18 C18       -16.1734   -1.3222   57.8034 C.ar    1  ZINC000676564986   -0.1000
     19 C19       -15.4774   -2.4161   57.3282 C.ar    1  ZINC000676564986   -0.1000
     20 C20       -12.8885   -4.7583   54.9144 C.ar    1  ZINC000676564986   -0.0700
     21 C21       -12.4075   -4.3156   53.6981 C.ar    1  ZINC000676564986   -0.1100
     22 N22       -10.4088    0.0451   52.6314 N.ar    1  ZINC000676564986   -0.5900
     23 C23        -9.9614    1.2861   52.6876 C.ar    1  ZINC000676564986    0.3600
     24 N24        -8.6945    1.5898   52.4976 N.ar    1  ZINC000676564986   -0.5600
     25 C25        -7.8009    0.6396   52.2441 C.ar    1  ZINC000676564986    0.3000
     26 H26        -5.1556    1.9560   52.9649 H       1  ZINC000676564986    0.0800
     27 H27        -4.7397    1.5912   51.2731 H       1  ZINC000676564986    0.0900
     28 H28        -6.1157    2.6588   51.6411 H       1  ZINC000676564986    0.0900
     29 H29        -5.0896   -1.0191   51.5802 H       1  ZINC000676564986    0.2200
     30 H30        -9.4502   -3.0150   52.3541 H       1  ZINC000676564986    0.4200
     31 H31       -12.0143   -1.5907   51.9294 H       1  ZINC000676564986    0.0800
     32 H32       -11.6907   -3.2747   51.4524 H       1  ZINC000676564986    0.0800
     33 H33       -11.8760   -1.0713   54.4636 H       1  ZINC000676564986    0.1300
     34 H34       -12.7412   -1.8462   56.6330 H       1  ZINC000676564986    0.1400
     35 H35       -13.5115   -3.0022   60.0202 H       1  ZINC000676564986    0.1200
     36 H36       -14.7516   -1.0465   60.8523 H       1  ZINC000676564986    0.1300
     37 H37       -16.4537    0.0284   59.4364 H       1  ZINC000676564986    0.1300
     38 H38       -16.9209   -0.8482   57.1847 H       1  ZINC000676564986    0.1300
     39 H39       -15.6830   -2.8000   56.3399 H       1  ZINC000676564986    0.1300
     40 H40       -13.1721   -5.7928   55.0395 H       1  ZINC000676564986    0.1300
     41 H41       -12.3108   -5.0055   52.8730 H       1  ZINC000676564986    0.1300
     42 H42       -10.6609    2.0819   52.8967 H       1  ZINC000676564986    0.2000
@<TRIPOS>BOND
     1     1     2    1
     2     1    26    1
     3     1    27    1
     4     1    28    1
     5     2    25    1
     6     2     3    1
     7     3     4    2
     8     3    29    1
     9     4     5    1
    10     5    25   ar
    11     5     6   ar
    12     6     7    1
    13     6    22   ar
    14     7     8    1
    15     7    30    1
    16     8     9    1
    17     8    31    1
    18     8    32    1
    19     9    21   ar
    20     9    10   ar
    21    10    11   ar
    22    10    33    1
    23    11    12   ar
    24    11    34    1
    25    12    13    1
    26    12    20   ar
    27    13    14    1
    28    14    19   ar
    29    14    15   ar
    30    15    16   ar
    31    15    35    1
    32    16    17   ar
    33    16    36    1
    34    17    18   ar
    35    17    37    1
    36    18    19   ar
    37    18    38    1
    38    19    39    1
    39    20    21   ar
    40    20    40    1
    41    21    41    1
    42    22    23   ar
    43    23    24   ar
    44    23    42    1
    45    24    25   ar
@<TRIPOS>SUBSTRUCTURE
     1 ZINC000676564986        1 TEMP              0 ****  ****    0 ROOT


##########                                Name:    ZINC000541000201
##########                DOCK_Rotatable_Bonds:                  10
##########                         Heavy_Atoms:                  30
##########                    Molecular_Weight:             420.413
##########                DOCK_Rotatable_Bonds:                  10
##########                       Formal_Charge:               -0.03
##########                     HBond_Acceptors:                   9
##########                        HBond_Donors:                   1
##########                         Heavy_Atoms:                  30
##########                          Grid_Score:          -30.038342
##########                     Grid_vdw_energy:          -30.200039
##########                      Grid_es_energy:            0.161698
##########           Internal_energy_repulsive:           11.835196

@<TRIPOS>MOLECULE
ZINC000541000201
 52 54 1 0 0
SMALL
USER_CHARGES


@<TRIPOS>ATOM
      1 C1        -13.4502   -0.5241   49.4520 C.3     1  ZINC000541000201    0.0400
      2 O2        -12.3551   -0.9292   50.3151 O.3     1  ZINC000541000201   -0.3500
      3 C3        -12.6738   -1.6247   51.4181 C.2     1  ZINC000541000201    0.4500
      4 O4        -13.8181   -1.9614   51.6104 O.2     1  ZINC000541000201   -0.4900
      5 C5        -11.6042   -1.9855   52.4165 C.3     1  ZINC000541000201    0.2100
      6 H6        -11.1402   -2.9284   52.1271 H       1  ZINC000541000201    0.1400
      7 N7        -12.2040   -2.1241   53.7460 N.am    1  ZINC000541000201   -0.7100
      8 C8        -12.5660   -3.3410   54.1983 C.2     1  ZINC000541000201    0.5800
      9 O9        -12.3961   -4.3235   53.5027 O.2     1  ZINC000541000201   -0.5300
     10 C10       -13.1686   -3.4809   55.5386 C.ar    1  ZINC000541000201   -0.2300
     11 C11       -13.2718   -4.7414   56.1445 C.ar    1  ZINC000541000201    0.0200
     12 C12       -13.8429   -4.8212   57.3982 C.ar    1  ZINC000541000201   -0.2000
     13 C13       -14.2939   -3.6588   58.0155 C.ar    1  ZINC000541000201    0.3500
     14 O14       -14.8554   -3.7310   59.2465 O.3     1  ZINC000541000201   -0.2900
     15 C15       -15.1338   -2.4943   59.9062 C.3     1  ZINC000541000201    0.0800
     16 C16       -15.9499   -2.7414   61.1992 C.3     1  ZINC000541000201   -0.1400
     17 C17       -15.6359   -1.4837   62.0471 C.3     1  ZINC000541000201   -0.1200
     18 C18       -14.1466   -1.1985   61.7636 C.3     1  ZINC000541000201   -0.1200
     19 C19       -13.8274   -1.8411   60.4023 C.3     1  ZINC000541000201   -0.1200
     20 N20       -14.1818   -2.4825   57.4173 N.ar    1  ZINC000541000201   -0.5400
     21 C21       -13.6390   -2.3599   56.2243 C.ar    1  ZINC000541000201    0.1800
     22 C22       -10.5592   -0.9001   52.4475 C.ar    1  ZINC000541000201   -0.1300
     23 C23       -10.8698    0.3422   52.9692 C.ar    1  ZINC000541000201   -0.0700
     24 C24        -9.9136    1.3388   52.9988 C.ar    1  ZINC000541000201   -0.1300
     25 C25        -8.6408    1.0922   52.5049 C.ar    1  ZINC000541000201    0.1200
     26 O26        -7.6984    2.0709   52.5333 O.3     1  ZINC000541000201   -0.3200
     27 C27        -7.2334    2.4866   53.8190 C.3     1  ZINC000541000201    0.4100
     28 F28        -8.0657    3.4974   54.3116 F       1  ZINC000541000201   -0.2000
     29 F29        -7.2531    1.3972   54.6967 F       1  ZINC000541000201   -0.2000
     30 C30        -8.3317   -0.1552   51.9824 C.ar    1  ZINC000541000201   -0.1900
     31 C31        -9.2900   -1.1499   51.9595 C.ar    1  ZINC000541000201   -0.0500
     32 H32       -13.0556    0.0288   48.5995 H       1  ZINC000541000201    0.1000
     33 H33       -13.9800   -1.4084   49.0977 H       1  ZINC000541000201    0.0600
     34 H34       -14.1372    0.1115   50.0107 H       1  ZINC000541000201    0.0600
     35 H35       -12.3406   -1.3401   54.3005 H       1  ZINC000541000201    0.4100
     36 H36       -12.9136   -5.6279   55.6422 H       1  ZINC000541000201    0.1600
     37 H37       -13.9390   -5.7756   57.8947 H       1  ZINC000541000201    0.1500
     38 H38       -15.6684   -1.8188   59.2385 H       1  ZINC000541000201    0.1000
     39 H39       -17.0155   -2.8018   60.9779 H       1  ZINC000541000201    0.0700
     40 H40       -15.6076   -3.6440   61.7055 H       1  ZINC000541000201    0.0800
     41 H41       -16.2529   -0.6441   61.7270 H       1  ZINC000541000201    0.0700
     42 H42       -15.7900   -1.6896   63.1064 H       1  ZINC000541000201    0.0700
     43 H43       -13.9744   -0.1231   61.7185 H       1  ZINC000541000201    0.0700
     44 H44       -13.5265   -1.6440   62.5414 H       1  ZINC000541000201    0.0700
     45 H45       -13.0523   -2.5983   60.5195 H       1  ZINC000541000201    0.0800
     46 H46       -13.5002   -1.0775   59.6966 H       1  ZINC000541000201    0.0700
     47 H47       -13.5645   -1.3838   55.7683 H       1  ZINC000541000201    0.1600
     48 H48       -11.8607    0.5336   53.3536 H       1  ZINC000541000201    0.1300
     49 H49       -10.1569    2.3092   53.4057 H       1  ZINC000541000201    0.1400
     50 H50        -6.2148    2.8649   53.7323 H       1  ZINC000541000201    0.1900
     51 H51        -7.3417   -0.3494   51.5970 H       1  ZINC000541000201    0.1400
     52 H52        -9.0497   -2.1213   51.5532 H       1  ZINC000541000201    0.1400
@<TRIPOS>BOND
     1     1     2    1
     2     1    32    1
     3     1    33    1
     4     1    34    1
     5     2     3    1
     6     3     4    2
     7     3     5    1
     8     5     6    1
     9     5     7    1
    10     5    22    1
    11     7     8   am
    12     7    35    1
    13     8     9    2
    14     8    10    1
    15    10    21   ar
    16    10    11   ar
    17    11    12   ar
    18    11    36    1
    19    12    13   ar
    20    12    37    1
    21    13    14    1
    22    13    20   ar
    23    14    15    1
    24    15    19    1
    25    15    16    1
    26    15    38    1
    27    16    17    1
    28    16    39    1
    29    16    40    1
    30    17    18    1
    31    17    41    1
    32    17    42    1
    33    18    19    1
    34    18    43    1
    35    18    44    1
    36    19    45    1
    37    19    46    1
    38    20    21   ar
    39    21    47    1
    40    22    31   ar
    41    22    23   ar
    42    23    24   ar
    43    23    48    1
    44    24    25   ar
    45    24    49    1
    46    25    26    1
    47    25    30   ar
    48    26    27    1
    49    27    28    1
    50    27    29    1
    51    27    50    1
    52    30    31   ar
    53    30    51    1
    54    31    52    1
@<TRIPOS>SUBSTRUCTURE
     1 ZINC000541000201        1 TEMP              0 ****  ****    0 ROOT


##########                                Name:    ZINC001220171460
##########                DOCK_Rotatable_Bonds:                  10
##########                         Heavy_Atoms:                  25
##########                    Molecular_Weight:             383.773
##########                DOCK_Rotatable_Bonds:                  10
##########                       Formal_Charge:           0.0199996
##########                     HBond_Acceptors:                  10
##########                        HBond_Donors:                   3
##########                         Heavy_Atoms:                  25
##########                          Grid_Score:          -30.027096
##########                     Grid_vdw_energy:          -27.517181
##########                      Grid_es_energy:           -2.509914
##########           Internal_energy_repulsive:           11.278618

@<TRIPOS>MOLECULE
ZINC001220171460
 43 44 1 0 0
SMALL
USER_CHARGES


@<TRIPOS>ATOM
      1 C1         -4.5853    3.7686   55.1870 C.3     1  ZINC001220171460    0.0200
      2 O2         -4.8802    3.8700   53.7925 O.3     1  ZINC001220171460   -0.3100
      3 C3         -5.2180    2.7209   53.1476 C.ar    1  ZINC001220171460    0.1000
      4 C4         -6.5404    2.3121   53.1061 C.ar    1  ZINC001220171460   -0.1500
      5 C5         -6.8835    1.1430   52.4499 C.ar    1  ZINC001220171460   -0.0600
      6 Cl6        -8.5422    0.6330   52.3987 Cl      1  ZINC001220171460   -0.0400
      7 C7         -5.9061    0.3791   51.8336 C.ar    1  ZINC001220171460    0.1000
      8 F8         -6.2451   -0.7614   51.1937 F       1  ZINC001220171460   -0.1200
      9 C9         -4.5827    0.7828   51.8719 C.ar    1  ZINC001220171460   -0.1200
     10 C10        -4.2349    1.9566   52.5233 C.ar    1  ZINC001220171460    0.1800
     11 N11        -2.8950    2.3672   52.5633 N.am    1  ZINC001220171460   -0.6700
     12 C12        -2.2223    2.5848   51.4159 C.2     1  ZINC001220171460    0.7100
     13 O13        -2.7775    2.4249   50.3460 O.2     1  ZINC001220171460   -0.5700
     14 N14        -0.9342    2.9795   51.4543 N.am    1  ZINC001220171460   -0.7400
     15 C15        -0.2025    3.2143   50.2070 C.3     1  ZINC001220171460    0.1400
     16 C16         1.2024    2.6189   50.3201 C.3     1  ZINC001220171460   -0.1400
     17 C17         1.2538    1.2871   49.5687 C.3     1  ZINC001220171460    0.0500
     18 H18         0.5710    0.5787   50.0378 H       1  ZINC001220171460    0.1000
     19 N19         0.8559    1.4981   48.1704 N.3     1  ZINC001220171460   -0.6500
     20 C20        -0.2890    0.6491   47.8150 C.3     1  ZINC001220171460    0.0100
     21 C21        -0.7593    0.6704   46.3592 C.3     1  ZINC001220171460   -0.2000
     22 C22        -0.0221   -0.5532   46.9072 C.3     1  ZINC001220171460   -0.1600
     23 C23         2.6779    0.7299   49.6153 C.3     1  ZINC001220171460    0.4600
     24 F24         3.3751    1.3198   50.6749 F       1  ZINC001220171460   -0.1800
     25 F25         2.6307   -0.6557   49.8022 F       1  ZINC001220171460   -0.1800
     26 F26         3.3302    1.0160   48.4111 F       1  ZINC001220171460   -0.1700
     27 H27        -5.4565    3.3815   55.7154 H       1  ZINC001220171460    0.0600
     28 H28        -3.7425    3.0927   55.3321 H       1  ZINC001220171460    0.0600
     29 H29        -4.3318    4.7543   55.5774 H       1  ZINC001220171460    0.1100
     30 H30        -7.3043    2.9058   53.5862 H       1  ZINC001220171460    0.1500
     31 H31        -3.8217    0.1860   51.3911 H       1  ZINC001220171460    0.1800
     32 H32        -2.4520    2.4948   53.4169 H       1  ZINC001220171460    0.4200
     33 H33        -0.4916    3.1083   52.3078 H       1  ZINC001220171460    0.4000
     34 H34        -0.7323    2.7410   49.3804 H       1  ZINC001220171460    0.0800
     35 H35        -0.1291    4.2865   50.0251 H       1  ZINC001220171460    0.0700
     36 H36         1.9256    3.3092   49.8859 H       1  ZINC001220171460    0.1000
     37 H37         1.4433    2.4532   51.3701 H       1  ZINC001220171460    0.1000
     38 H38         0.6530    2.4707   47.9950 H       1  ZINC001220171460    0.3600
     39 H39        -1.0491    0.5369   48.5882 H       1  ZINC001220171460    0.1200
     40 H40        -1.8291    0.5724   46.1745 H       1  ZINC001220171460    0.1000
     41 H41        -0.2192    1.3144   45.6652 H       1  ZINC001220171460    0.1000
     42 H42         1.0031   -0.7141   46.5736 H       1  ZINC001220171460    0.1000
     43 H43        -0.6068   -1.4561   47.0828 H       1  ZINC001220171460    0.1000
@<TRIPOS>BOND
     1     1     2    1
     2     1    27    1
     3     1    28    1
     4     1    29    1
     5     2     3    1
     6     3    10   ar
     7     3     4   ar
     8     4     5   ar
     9     4    30    1
    10     5     6    1
    11     5     7   ar
    12     7     8    1
    13     7     9   ar
    14     9    10   ar
    15     9    31    1
    16    10    11    1
    17    11    12   am
    18    11    32    1
    19    12    13    2
    20    12    14   am
    21    14    15    1
    22    14    33    1
    23    15    16    1
    24    15    34    1
    25    15    35    1
    26    16    17    1
    27    16    36    1
    28    16    37    1
    29    17    18    1
    30    17    19    1
    31    17    23    1
    32    19    20    1
    33    19    38    1
    34    20    22    1
    35    20    21    1
    36    20    39    1
    37    21    22    1
    38    21    40    1
    39    21    41    1
    40    22    42    1
    41    22    43    1
    42    23    24    1
    43    23    25    1
    44    23    26    1
@<TRIPOS>SUBSTRUCTURE
     1 ZINC001220171460        1 TEMP              0 ****  ****    0 ROOT


##########                                Name:    ZINC000062882109
##########                DOCK_Rotatable_Bonds:                   8
##########                         Heavy_Atoms:                  31
##########                    Molecular_Weight:             424.497
##########                DOCK_Rotatable_Bonds:                   8
##########                       Formal_Charge:           0.0299993
##########                     HBond_Acceptors:                   7
##########                        HBond_Donors:                   1
##########                         Heavy_Atoms:                  31
##########                          Grid_Score:          -30.012989
##########                     Grid_vdw_energy:          -28.525238
##########                      Grid_es_energy:           -1.487752
##########           Internal_energy_repulsive:          187.249634

@<TRIPOS>MOLECULE
ZINC000062882109
 59 61 1 0 0
SMALL
USER_CHARGES


@<TRIPOS>ATOM
      1 C1        -13.4615   -5.1358   56.3694 C.3     1  ZINC000062882109   -0.2000
      2 C2        -12.7790   -4.3153   57.4334 C.2     1  ZINC000062882109    0.3900
      3 O3        -11.5816   -4.4115   57.5982 O.2     1  ZINC000062882109   -0.4500
      4 C4        -13.5660   -3.3971   58.2725 C.ar    1  ZINC000062882109   -0.1300
      5 C5        -14.9510   -3.3037   58.1030 C.ar    1  ZINC000062882109   -0.1100
      6 C6        -15.6843   -2.4418   58.8917 C.ar    1  ZINC000062882109   -0.0900
      7 C7        -15.0548   -1.6689   59.8503 C.ar    1  ZINC000062882109   -0.1800
      8 C8        -13.6797   -1.7538   60.0266 C.ar    1  ZINC000062882109    0.1200
      9 O9        -13.0678   -0.9912   60.9707 O.3     1  ZINC000062882109   -0.2800
     10 C10       -11.6544   -0.8190   60.8494 C.3     1  ZINC000062882109    0.0700
     11 H11       -11.1686   -1.7947   60.8445 H       1  ZINC000062882109    0.1000
     12 C12       -11.1374    0.0023   62.0323 C.3     1  ZINC000062882109   -0.1800
     13 C13       -11.3449   -0.0972   59.5632 C.2     1  ZINC000062882109    0.5200
     14 O14       -12.1514    0.6772   59.0931 O.2     1  ZINC000062882109   -0.4900
     15 N15       -10.1719   -0.3122   58.9353 N.am    1  ZINC000062882109   -0.6600
     16 C16        -9.8841    0.3588   57.7395 C.ar    1  ZINC000062882109    0.1400
     17 C17        -9.1678    1.5477   57.7648 C.ar    1  ZINC000062882109   -0.1000
     18 C18        -8.8834    2.2135   56.5879 C.ar    1  ZINC000062882109   -0.1100
     19 C19        -9.3126    1.6971   55.3744 C.ar    1  ZINC000062882109    0.0800
     20 O20        -9.0339    2.3662   54.2238 O.3     1  ZINC000062882109   -0.3100
     21 C21        -9.0851    1.6326   52.9979 C.3     1  ZINC000062882109    0.0500
     22 C22       -10.4086    0.8568   52.9403 C.3     1  ZINC000062882109    0.0400
     23 N23       -10.4594   -0.0249   54.1190 N.am    1  ZINC000062882109   -0.5500
     24 C24       -10.9035   -1.2938   54.0222 C.2     1  ZINC000062882109    0.5300
     25 O25       -10.9365   -2.0016   55.0066 O.2     1  ZINC000062882109   -0.5100
     26 C26       -11.3593   -1.8329   52.6907 C.3     1  ZINC000062882109   -0.0800
     27 C27       -11.9569   -3.2282   52.8831 C.3     1  ZINC000062882109   -0.1300
     28 C28       -12.4190   -0.9014   52.0990 C.3     1  ZINC000062882109   -0.1600
     29 C29       -10.1647   -1.9165   51.7384 C.3     1  ZINC000062882109   -0.1500
     30 C30       -10.0281    0.5025   55.3484 C.ar    1  ZINC000062882109    0.1000
     31 C31       -10.3102   -0.1673   56.5271 C.ar    1  ZINC000062882109   -0.1400
     32 C32       -12.9330   -2.6190   59.2462 C.ar    1  ZINC000062882109   -0.0900
     33 H33       -12.7229   -5.7508   55.8554 H       1  ZINC000062882109    0.0900
     34 H34       -14.2113   -5.7783   56.8311 H       1  ZINC000062882109    0.1000
     35 H35       -13.9439   -4.4718   55.6522 H       1  ZINC000062882109    0.1000
     36 H36       -15.4458   -3.9054   57.3551 H       1  ZINC000062882109    0.1400
     37 H37       -16.7537   -2.3699   58.7598 H       1  ZINC000062882109    0.1300
     38 H38       -15.6350   -0.9962   60.4644 H       1  ZINC000062882109    0.1300
     39 H39       -11.3614   -0.5199   62.9625 H       1  ZINC000062882109    0.0800
     40 H40       -10.0593    0.1336   61.9398 H       1  ZINC000062882109    0.0800
     41 H41       -11.6232    0.9780   62.0372 H       1  ZINC000062882109    0.0800
     42 H42        -9.5269   -0.9315   59.3112 H       1  ZINC000062882109    0.4100
     43 H43        -8.8318    1.9537   58.7075 H       1  ZINC000062882109    0.1400
     44 H44        -8.3261    3.1382   56.6129 H       1  ZINC000062882109    0.1400
     45 H45        -9.0294    2.3232   52.1564 H       1  ZINC000062882109    0.1300
     46 H46        -8.2497    0.9338   52.9552 H       1  ZINC000062882109    0.0700
     47 H47       -11.2469    1.5531   52.9628 H       1  ZINC000062882109    0.0900
     48 H48       -10.4477    0.2592   52.0294 H       1  ZINC000062882109    0.1300
     49 H49       -12.8079   -3.1686   53.5615 H       1  ZINC000062882109    0.0600
     50 H50       -12.2865   -3.6181   51.9201 H       1  ZINC000062882109    0.0700
     51 H51       -11.2019   -3.8918   53.3046 H       1  ZINC000062882109    0.0700
     52 H52       -11.9933    0.0926   51.9620 H       1  ZINC000062882109    0.0700
     53 H53       -12.7487   -1.2914   51.1361 H       1  ZINC000062882109    0.0800
     54 H54       -13.2700   -0.8418   52.7774 H       1  ZINC000062882109    0.0600
     55 H55        -9.5032   -2.7228   52.0553 H       1  ZINC000062882109    0.0700
     56 H56       -10.5196   -2.1141   50.7269 H       1  ZINC000062882109    0.0800
     57 H57        -9.6204   -0.9723   51.7546 H       1  ZINC000062882109    0.0700
     58 H58       -10.8640   -1.0942   56.5039 H       1  ZINC000062882109    0.1800
     59 H59       -11.8637   -2.6861   59.3828 H       1  ZINC000062882109    0.1400
@<TRIPOS>BOND
     1     1     2    1
     2     1    33    1
     3     1    34    1
     4     1    35    1
     5     2     3    2
     6     2     4    1
     7     4    32   ar
     8     4     5   ar
     9     5     6   ar
    10     5    36    1
    11     6     7   ar
    12     6    37    1
    13     7     8   ar
    14     7    38    1
    15     8     9    1
    16     8    32   ar
    17     9    10    1
    18    10    11    1
    19    10    12    1
    20    10    13    1
    21    12    39    1
    22    12    40    1
    23    12    41    1
    24    13    14    2
    25    13    15   am
    26    15    16    1
    27    15    42    1
    28    16    31   ar
    29    16    17   ar
    30    17    18   ar
    31    17    43    1
    32    18    19   ar
    33    18    44    1
    34    19    30   ar
    35    19    20    1
    36    20    21    1
    37    21    22    1
    38    21    45    1
    39    21    46    1
    40    22    23    1
    41    22    47    1
    42    22    48    1
    43    23    24   am
    44    23    30    1
    45    24    25    2
    46    24    26    1
    47    26    27    1
    48    26    28    1
    49    26    29    1
    50    27    49    1
    51    27    50    1
    52    27    51    1
    53    28    52    1
    54    28    53    1
    55    28    54    1
    56    29    55    1
    57    29    56    1
    58    29    57    1
    59    30    31   ar
    60    31    58    1
    61    32    59    1
@<TRIPOS>SUBSTRUCTURE
     1 ZINC000062882109        1 TEMP              0 ****  ****    0 ROOT


##########                                Name:    ZINC001013196242
##########                DOCK_Rotatable_Bonds:                   5
##########                         Heavy_Atoms:                  24
##########                    Molecular_Weight:              349.86
##########                DOCK_Rotatable_Bonds:                   5
##########                       Formal_Charge:        -3.05474e-07
##########                     HBond_Acceptors:                   6
##########                        HBond_Donors:                   1
##########                         Heavy_Atoms:                  24
##########                          Grid_Score:          -29.994982
##########                     Grid_vdw_energy:          -29.999769
##########                      Grid_es_energy:            0.004788
##########           Internal_energy_repulsive:           12.201486

@<TRIPOS>MOLECULE
ZINC001013196242
 48 51 1 0 0
SMALL
USER_CHARGES


@<TRIPOS>ATOM
      1 C1        -12.8458   -2.1187   52.3151 C.3     1  ZINC001013196242   -0.1600
      2 C2        -11.7891   -2.6111   53.3060 C.3     1  ZINC001013196242    0.1400
      3 H3        -11.4036   -3.5791   52.9859 H       1  ZINC001013196242    0.0800
      4 C4        -12.4070   -2.7321   54.7150 C.3     1  ZINC001013196242   -0.1400
      5 C5        -11.2613   -2.2428   55.6399 C.3     1  ZINC001013196242    0.1300
      6 H6        -10.5500   -3.0445   55.8383 H       1  ZINC001013196242    0.1100
      7 N7        -11.7933   -1.6953   56.8903 N.am    1  ZINC001013196242   -0.7200
      8 C8        -11.1388   -1.9040   58.0498 C.2     1  ZINC001013196242    0.5400
      9 O9        -10.1085   -2.5438   58.0578 O.2     1  ZINC001013196242   -0.5200
     10 C10       -11.6871   -1.3423   59.3361 C.3     1  ZINC001013196242   -0.1400
     11 C11       -11.0473   -1.9515   60.5962 C.3     1  ZINC001013196242   -0.0800
     12 C12       -10.0020   -0.8346   60.5037 C.3     1  ZINC001013196242   -0.1600
     13 C13        -9.0068   -0.3737   61.5627 C.3     1  ZINC001013196242   -0.1700
     14 C14        -8.5056   -0.9526   60.2368 C.3     1  ZINC001013196242   -0.1400
     15 C15       -11.0454   -0.0054   59.7472 C.3     1  ZINC001013196242   -0.0800
     16 C16       -10.6171   -1.1304   54.7753 C.3     1  ZINC001013196242    0.0800
     17 N17       -10.6902   -1.6381   53.3897 N.am    1  ZINC001013196242   -0.6000
     18 C18        -9.8849   -1.2683   52.3743 C.2     1  ZINC001013196242    0.6100
     19 O19       -10.0383   -1.7529   51.2685 O.2     1  ZINC001013196242   -0.5400
     20 C20        -8.8237   -0.2819   52.6018 C.2     1  ZINC001013196242   -0.0400
     21 C21        -8.9863    0.9845   53.1225 C.2     1  ZINC001013196242   -0.1400
     22 C22        -7.7199    1.5771   53.1659 C.2     1  ZINC001013196242   -0.1200
     23 Cl23       -7.3582    3.1754   53.7390 Cl      1  ZINC001013196242   -0.0400
     24 C24        -6.8254    0.6818   52.6814 C.2     1  ZINC001013196242    0.0400
     25 N25        -7.4834   -0.4540   52.3399 N.pl3   1  ZINC001013196242   -0.4000
     26 C26        -6.8707   -1.6603   51.7780 C.3     1  ZINC001013196242    0.0700
     27 H27       -12.4011   -2.0303   51.3238 H       1  ZINC001013196242    0.0700
     28 H28       -13.6713   -2.8297   52.2810 H       1  ZINC001013196242    0.0700
     29 H29       -13.2177   -1.1451   52.6345 H       1  ZINC001013196242    0.0600
     30 H30       -13.2808   -2.0875   54.8095 H       1  ZINC001013196242    0.0900
     31 H31       -12.6647   -3.7679   54.9354 H       1  ZINC001013196242    0.0900
     32 H32       -12.6168   -1.1825   56.8836 H       1  ZINC001013196242    0.4000
     33 H33       -12.7767   -1.3291   59.3615 H       1  ZINC001013196242    0.1000
     34 H34       -11.6791   -1.8868   61.4822 H       1  ZINC001013196242    0.1000
     35 H35       -10.6366   -2.9489   60.4393 H       1  ZINC001013196242    0.0700
     36 H36        -8.8969    0.6997   61.7171 H       1  ZINC001013196242    0.1000
     37 H37        -8.8986   -0.9909   62.4546 H       1  ZINC001013196242    0.0900
     38 H38        -8.0678   -1.9506   60.2566 H       1  ZINC001013196242    0.0900
     39 H39        -8.0661   -0.2599   59.5190 H       1  ZINC001013196242    0.1000
     40 H40       -10.6331    0.5575   58.9099 H       1  ZINC001013196242    0.0800
     41 H41       -11.6766    0.6010   60.3969 H       1  ZINC001013196242    0.0900
     42 H42       -11.1801   -0.2021   54.8707 H       1  ZINC001013196242    0.0800
     43 H43        -9.5782   -0.9769   55.0673 H       1  ZINC001013196242    0.1000
     44 H44        -9.9164    1.4344   53.4372 H       1  ZINC001013196242    0.1600
     45 H45        -5.7620    0.8445   52.5863 H       1  ZINC001013196242    0.1800
     46 H46        -6.6659   -2.3706   52.5791 H       1  ZINC001013196242    0.0800
     47 H47        -7.5523   -2.1120   51.0573 H       1  ZINC001013196242    0.1000
     48 H48        -5.9380   -1.3958   51.2798 H       1  ZINC001013196242    0.0900
@<TRIPOS>BOND
     1     1     2    1
     2     1    27    1
     3     1    28    1
     4     1    29    1
     5     2     3    1
     6     2    17    1
     7     2     4    1
     8     4     5    1
     9     4    30    1
    10     4    31    1
    11     5     6    1
    12     5     7    1
    13     5    16    1
    14     7     8   am
    15     7    32    1
    16     8     9    2
    17     8    10    1
    18    10    15    1
    19    10    11    1
    20    10    33    1
    21    11    12    1
    22    11    34    1
    23    11    35    1
    24    12    14    1
    25    12    13    1
    26    12    15    1
    27    13    14    1
    28    13    36    1
    29    13    37    1
    30    14    38    1
    31    14    39    1
    32    15    40    1
    33    15    41    1
    34    16    17    1
    35    16    42    1
    36    16    43    1
    37    17    18   am
    38    18    19    2
    39    18    20    1
    40    20    25    1
    41    20    21    2
    42    21    22    1
    43    21    44    1
    44    22    23    1
    45    22    24    2
    46    24    25    1
    47    24    45    1
    48    25    26    1
    49    26    46    1
    50    26    47    1
    51    26    48    1
@<TRIPOS>SUBSTRUCTURE
     1 ZINC001013196242        1 TEMP              0 ****  ****    0 ROOT


##########                                Name:    ZINC000549381790
##########                DOCK_Rotatable_Bonds:                   7
##########                         Heavy_Atoms:                  23
##########                    Molecular_Weight:             337.846
##########                DOCK_Rotatable_Bonds:                   7
##########                       Formal_Charge:           0.0300006
##########                     HBond_Acceptors:                   5
##########                        HBond_Donors:                   0
##########                         Heavy_Atoms:                  23
##########                          Grid_Score:          -29.994276
##########                     Grid_vdw_energy:          -28.347710
##########                      Grid_es_energy:           -1.646566
##########           Internal_energy_repulsive:           86.461983

@<TRIPOS>MOLECULE
ZINC000549381790
 47 49 1 0 0
SMALL
USER_CHARGES


@<TRIPOS>ATOM
      1 C1         -2.2226    3.0292   51.9905 C.3     1  ZINC000549381790   -0.1400
      2 C2         -2.5540    3.4505   53.4234 C.3     1  ZINC000549381790    0.1500
      3 H3         -1.9576    2.8654   54.1235 H       1  ZINC000549381790    0.0700
      4 C4         -2.2449    4.9399   53.6054 C.3     1  ZINC000549381790   -0.1300
      5 C5         -2.7072    5.3868   54.9942 C.3     1  ZINC000549381790   -0.1200
      6 C6         -4.2196    5.1887   55.1185 C.3     1  ZINC000549381790   -0.1400
      7 C7         -4.5511    3.7022   54.9537 C.3     1  ZINC000549381790    0.1000
      8 N8         -3.9821    3.2256   53.6852 N.am    1  ZINC000549381790   -0.6100
      9 C9         -4.7566    2.5989   52.7777 C.2     1  ZINC000549381790    0.5200
     10 O10        -4.2751    2.2104   51.7345 O.2     1  ZINC000549381790   -0.5000
     11 C11        -6.2211    2.3811   53.0590 C.3     1  ZINC000549381790    0.0400
     12 O12        -6.8836    1.9864   51.8559 O.3     1  ZINC000549381790   -0.2800
     13 C13        -7.7275    0.9230   51.9362 C.ar    1  ZINC000549381790    0.1100
     14 C14        -7.2571   -0.3561   51.6800 C.ar    1  ZINC000549381790   -0.1700
     15 C15        -8.1139   -1.4371   51.7620 C.ar    1  ZINC000549381790   -0.1600
     16 C16        -9.4445   -1.2432   52.0998 C.ar    1  ZINC000549381790    0.1100
     17 O17       -10.2878   -2.3072   52.1803 O.3     1  ZINC000549381790   -0.3000
     18 C18       -10.2305   -3.0916   53.3734 C.3     1  ZINC000549381790    0.0900
     19 C19       -11.4873   -3.9582   53.4749 C.3     1  ZINC000549381790   -0.1600
     20 C20       -12.2189   -3.9868   54.8184 C.3     1  ZINC000549381790   -0.1700
     21 C21       -12.8295   -3.2405   53.6306 C.3     1  ZINC000549381790   -0.1700
     22 C22        -9.9158    0.0372   52.3562 C.ar    1  ZINC000549381790   -0.0300
     23 Cl23      -11.5818    0.2805   52.7798 Cl      1  ZINC000549381790   -0.0400
     24 C24        -9.0572    1.1173   52.2799 C.ar    1  ZINC000549381790   -0.1000
     25 H25        -2.8897    3.5421   51.2975 H       1  ZINC000549381790    0.0600
     26 H26        -1.1899    3.2938   51.7636 H       1  ZINC000549381790    0.0500
     27 H27        -2.3522    1.9517   51.8893 H       1  ZINC000549381790    0.0800
     28 H28        -1.1715    5.1030   53.5093 H       1  ZINC000549381790    0.0800
     29 H29        -2.7705    5.5162   52.8441 H       1  ZINC000549381790    0.0700
     30 H30        -2.1994    4.7931   55.7544 H       1  ZINC000549381790    0.0700
     31 H31        -2.4661    6.4403   55.1356 H       1  ZINC000549381790    0.0700
     32 H32        -4.5517    5.5289   56.0994 H       1  ZINC000549381790    0.0800
     33 H33        -4.7266    5.7626   54.3429 H       1  ZINC000549381790    0.0700
     34 H34        -4.1194    3.1378   55.7803 H       1  ZINC000549381790    0.0800
     35 H35        -5.6327    3.5680   54.9424 H       1  ZINC000549381790    0.0800
     36 H36        -6.3344    1.5988   53.8095 H       1  ZINC000549381790    0.0900
     37 H37        -6.6615    3.3066   53.4296 H       1  ZINC000549381790    0.0900
     38 H38        -6.2208   -0.5076   51.4163 H       1  ZINC000549381790    0.1400
     39 H39        -7.7472   -2.4331   51.5624 H       1  ZINC000549381790    0.1400
     40 H40        -9.3489   -3.7320   53.3453 H       1  ZINC000549381790    0.0700
     41 H41       -10.1731   -2.4320   54.2394 H       1  ZINC000549381790    0.0700
     42 H42       -11.4730   -4.8775   52.8895 H       1  ZINC000549381790    0.1200
     43 H43       -12.6860   -4.9253   55.1171 H       1  ZINC000549381790    0.1000
     44 H44       -11.8048   -3.3884   55.6299 H       1  ZINC000549381790    0.1000
     45 H45       -12.8172   -2.1510   53.6606 H       1  ZINC000549381790    0.1000
     46 H46       -13.6984   -3.6879   53.1479 H       1  ZINC000549381790    0.1000
     47 H47        -9.4235    2.1136   52.4793 H       1  ZINC000549381790    0.1500
@<TRIPOS>BOND
     1     1     2    1
     2     1    25    1
     3     1    26    1
     4     1    27    1
     5     2     3    1
     6     2     8    1
     7     2     4    1
     8     4     5    1
     9     4    28    1
    10     4    29    1
    11     5     6    1
    12     5    30    1
    13     5    31    1
    14     6     7    1
    15     6    32    1
    16     6    33    1
    17     7     8    1
    18     7    34    1
    19     7    35    1
    20     8     9   am
    21     9    10    2
    22     9    11    1
    23    11    12    1
    24    11    36    1
    25    11    37    1
    26    12    13    1
    27    13    24   ar
    28    13    14   ar
    29    14    15   ar
    30    14    38    1
    31    15    16   ar
    32    15    39    1
    33    16    17    1
    34    16    22   ar
    35    17    18    1
    36    18    19    1
    37    18    40    1
    38    18    41    1
    39    19    21    1
    40    19    20    1
    41    19    42    1
    42    20    21    1
    43    20    43    1
    44    20    44    1
    45    21    45    1
    46    21    46    1
    47    22    23    1
    48    22    24   ar
    49    24    47    1
@<TRIPOS>SUBSTRUCTURE
     1 ZINC000549381790        1 TEMP              0 ****  ****    0 ROOT


##########                                Name:    ZINC000195331548
##########                DOCK_Rotatable_Bonds:                   7
##########                         Heavy_Atoms:                  26
##########                    Molecular_Weight:             378.539
##########                DOCK_Rotatable_Bonds:                   7
##########                       Formal_Charge:          -0.0100004
##########                     HBond_Acceptors:                   7
##########                        HBond_Donors:                   2
##########                         Heavy_Atoms:                  26
##########                          Grid_Score:          -29.976269
##########                     Grid_vdw_energy:          -29.932093
##########                      Grid_es_energy:           -0.044177
##########           Internal_energy_repulsive:           26.872797

@<TRIPOS>MOLECULE
ZINC000195331548
 56 58 1 0 0
SMALL
USER_CHARGES


@<TRIPOS>ATOM
      1 C1         -9.3395    1.9887   57.5459 C.3     1  ZINC000195331548   -0.0800
      2 C2         -9.4603    2.3207   56.0810 C.2     1  ZINC000195331548    0.0700
      3 C3        -10.5759    2.8229   55.5431 C.2     1  ZINC000195331548   -0.2600
      4 S4        -10.2859    3.0672   53.8224 S.3     1  ZINC000195331548    0.1100
      5 C5         -8.6963    2.4618   53.9957 C.2     1  ZINC000195331548    0.0600
      6 C6         -7.6968    2.3294   52.8756 C.3     1  ZINC000195331548   -0.0100
      7 H7         -7.9188    3.0630   52.1005 H       1  ZINC000195331548    0.1100
      8 C8         -7.7767    0.9197   52.2832 C.3     1  ZINC000195331548   -0.1200
      9 C9         -6.7176    0.7746   51.1869 C.3     1  ZINC000195331548   -0.1100
     10 C10        -5.3356    1.0605   51.7786 C.3     1  ZINC000195331548    0.0500
     11 N11        -5.3103    2.4207   52.3315 N.3     1  ZINC000195331548   -0.5200
     12 C12        -3.9595    2.7800   52.7839 C.3     1  ZINC000195331548    0.0400
     13 C13        -3.1489    3.2645   51.6096 C.2     1  ZINC000195331548    0.5100
     14 O14        -3.0028    4.4535   51.4231 O.2     1  ZINC000195331548   -0.4400
     15 N15        -2.5862    2.3760   50.7666 N.am    1  ZINC000195331548   -0.7000
     16 C16        -1.8626    2.8093   49.7155 C.2     1  ZINC000195331548    0.6900
     17 O17        -1.7185    4.0013   49.5268 O.2     1  ZINC000195331548   -0.5300
     18 N18        -1.2986    1.9208   48.8735 N.am    1  ZINC000195331548   -0.7300
     19 C19        -0.5105    2.3918   47.7318 C.3     1  ZINC000195331548    0.1700
     20 H20        -0.6954    3.4547   47.5764 H       1  ZINC000195331548    0.0900
     21 C21        -0.9152    1.6150   46.4774 C.3     1  ZINC000195331548   -0.1300
     22 C22        -0.6557    0.1230   46.6956 C.3     1  ZINC000195331548   -0.1200
     23 C23         0.8317   -0.1002   46.9759 C.3     1  ZINC000195331548   -0.1200
     24 C24         1.2366    0.6766   48.2303 C.3     1  ZINC000195331548   -0.1100
     25 C25         0.9770    2.1686   48.0121 C.3     1  ZINC000195331548   -0.1000
     26 H26         1.5633    2.5189   47.1628 H       1  ZINC000195331548    0.0900
     27 C27         1.3817    2.9454   49.2666 C.3     1  ZINC000195331548   -0.1500
     28 C28        -6.2863    2.5703   53.4183 C.3     1  ZINC000195331548    0.0600
     29 N29        -8.4745    2.1399   55.2253 N.2     1  ZINC000195331548   -0.4700
     30 H30        -8.9727    2.8609   58.0871 H       1  ZINC000195331548    0.0800
     31 H31       -10.3167    1.7038   57.9357 H       1  ZINC000195331548    0.0800
     32 H32        -8.6416    1.1613   57.6746 H       1  ZINC000195331548    0.0800
     33 H33       -11.4920    3.0437   56.0707 H       1  ZINC000195331548    0.1800
     34 H34        -7.5932    0.1844   53.0666 H       1  ZINC000195331548    0.0600
     35 H35        -8.7672    0.7590   51.8576 H       1  ZINC000195331548    0.0700
     36 H36        -6.7409   -0.2405   50.7905 H       1  ZINC000195331548    0.0800
     37 H37        -6.9241    1.4837   50.3852 H       1  ZINC000195331548    0.0800
     38 H38        -4.5806    0.9720   50.9973 H       1  ZINC000195331548    0.0800
     39 H39        -5.1240    0.3424   52.5708 H       1  ZINC000195331548    0.0400
     40 H40        -3.4783    1.9053   53.2215 H       1  ZINC000195331548    0.1200
     41 H41        -4.0250    3.5707   53.5312 H       1  ZINC000195331548    0.0700
     42 H42        -2.7022    1.4247   50.9165 H       1  ZINC000195331548    0.4100
     43 H43        -1.4145    0.9695   49.0234 H       1  ZINC000195331548    0.4000
     44 H44        -0.3289    1.9654   45.6280 H       1  ZINC000195331548    0.0700
     45 H45        -1.9750    1.7741   46.2777 H       1  ZINC000195331548    0.0700
     46 H46        -0.9441   -0.4304   45.8018 H       1  ZINC000195331548    0.0600
     47 H47        -1.2421   -0.2274   47.5448 H       1  ZINC000195331548    0.0600
     48 H48         1.0166   -1.1631   47.1312 H       1  ZINC000195331548    0.0600
     49 H49         1.4181    0.2502   46.1265 H       1  ZINC000195331548    0.0600
     50 H50         0.6501    0.3261   49.0796 H       1  ZINC000195331548    0.0600
     51 H51         2.2962    0.5176   48.4300 H       1  ZINC000195331548    0.0700
     52 H52         0.7953    2.5950   50.1160 H       1  ZINC000195331548    0.0500
     53 H53         2.4414    2.7863   49.4663 H       1  ZINC000195331548    0.0600
     54 H54         1.1968    4.0083   49.1112 H       1  ZINC000195331548    0.0600
     55 H55        -6.0703    1.8451   54.2029 H       1  ZINC000195331548    0.0400
     56 H56        -6.2221    3.5783   53.8280 H       1  ZINC000195331548    0.0900
@<TRIPOS>BOND
     1     1     2    1
     2     1    30    1
     3     1    31    1
     4     1    32    1
     5     2    29    1
     6     2     3    2
     7     3     4    1
     8     3    33    1
     9     4     5    1
    10     5     6    1
    11     5    29    2
    12     6     7    1
    13     6    28    1
    14     6     8    1
    15     8     9    1
    16     8    34    1
    17     8    35    1
    18     9    10    1
    19     9    36    1
    20     9    37    1
    21    10    11    1
    22    10    38    1
    23    10    39    1
    24    11    12    1
    25    11    28    1
    26    12    13    1
    27    12    40    1
    28    12    41    1
    29    13    14    2
    30    13    15   am
    31    15    16   am
    32    15    42    1
    33    16    17    2
    34    16    18   am
    35    18    19    1
    36    18    43    1
    37    19    20    1
    38    19    25    1
    39    19    21    1
    40    21    22    1
    41    21    44    1
    42    21    45    1
    43    22    23    1
    44    22    46    1
    45    22    47    1
    46    23    24    1
    47    23    48    1
    48    23    49    1
    49    24    25    1
    50    24    50    1
    51    24    51    1
    52    25    26    1
    53    25    27    1
    54    27    52    1
    55    27    53    1
    56    27    54    1
    57    28    55    1
    58    28    56    1
@<TRIPOS>SUBSTRUCTURE
     1 ZINC000195331548        1 TEMP              0 ****  ****    0 ROOT


##########                                Name:    ZINC000545381384
##########                DOCK_Rotatable_Bonds:                   6
##########                         Heavy_Atoms:                  30
##########                    Molecular_Weight:             405.543
##########                DOCK_Rotatable_Bonds:                   6
##########                       Formal_Charge:                0.05
##########                     HBond_Acceptors:                   6
##########                        HBond_Donors:                   1
##########                         Heavy_Atoms:                  30
##########                          Grid_Score:          -29.955311
##########                     Grid_vdw_energy:          -28.620686
##########                      Grid_es_energy:           -1.334625
##########           Internal_energy_repulsive:           15.156013

@<TRIPOS>MOLECULE
ZINC000545381384
 61 64 1 0 0
SMALL
USER_CHARGES


@<TRIPOS>ATOM
      1 C1        -15.2892   -2.5846   53.0692 C.3     1  ZINC000545381384   -0.2000
      2 C2        -13.9707   -3.0769   53.6693 C.3     1  ZINC000545381384    0.0500
      3 N3        -12.8939   -2.1407   53.3198 N.3     1  ZINC000545381384   -0.5300
      4 C4        -12.0296   -2.6999   52.2685 C.3     1  ZINC000545381384    0.0500
      5 C5        -11.1809   -1.5709   51.6844 C.3     1  ZINC000545381384   -0.0700
      6 C6        -10.4985   -0.8111   52.7966 C.ar    1  ZINC000545381384    0.1800
      7 C7        -10.9348   -0.9173   54.1119 C.ar    1  ZINC000545381384   -0.0800
      8 C8        -12.0962   -1.7931   54.5001 C.3     1  ZINC000545381384    0.0900
      9 C9        -10.2859   -0.1992   55.1134 C.ar    1  ZINC000545381384   -0.0700
     10 C10       -10.7287   -0.2886   56.5212 C.2     1  ZINC000545381384    0.5800
     11 O11       -11.5092    0.5304   56.9660 O.2     1  ZINC000545381384   -0.4800
     12 N12       -10.2670   -1.2780   57.3112 N.am    1  ZINC000545381384   -0.6400
     13 C13       -10.6856   -1.3633   58.6375 C.2     1  ZINC000545381384    0.3000
     14 C14       -11.9694   -1.5018   59.0696 C.2     1  ZINC000545381384   -0.2700
     15 C15       -11.9490   -1.5479   60.4660 C.2     1  ZINC000545381384    0.1000
     16 C16       -13.1529   -1.6951   61.3603 C.3     1  ZINC000545381384   -0.0300
     17 C17       -13.6637   -0.3094   61.7602 C.3     1  ZINC000545381384   -0.0600
     18 C18       -12.5585    0.4479   62.4990 C.3     1  ZINC000545381384   -0.1500
     19 C19       -14.0636    0.4686   60.5049 C.3     1  ZINC000545381384   -0.1400
     20 C20       -14.8798   -0.4590   62.6765 C.3     1  ZINC000545381384   -0.1400
     21 N21       -10.7076   -1.4420   60.8655 N.2     1  ZINC000545381384   -0.2700
     22 N22        -9.8872   -1.3293   59.7357 N.pl3   1  ZINC000545381384   -0.3900
     23 C23        -8.4288   -1.1906   59.7386 C.3     1  ZINC000545381384    0.1000
     24 C24        -9.1896    0.6186   54.7457 C.ar    1  ZINC000545381384   -0.0700
     25 C25        -8.4845    1.3703   55.6941 C.ar    1  ZINC000545381384   -0.1100
     26 C26        -7.4346    2.1427   55.2964 C.ar    1  ZINC000545381384   -0.1000
     27 C27        -7.0534    2.1946   53.9572 C.ar    1  ZINC000545381384   -0.1000
     28 C28        -7.7171    1.4781   53.0100 C.ar    1  ZINC000545381384   -0.0900
     29 C29        -8.8063    0.6686   53.3825 C.ar    1  ZINC000545381384    0.1400
     30 N30        -9.4762   -0.0442   52.4778 N.ar    1  ZINC000545381384   -0.4600
     31 H31       -15.5060   -1.5831   53.4408 H       1  ZINC000545381384    0.0600
     32 H32       -15.2068   -2.5591   51.9827 H       1  ZINC000545381384    0.0600
     33 H33       -16.0942   -3.2610   53.3568 H       1  ZINC000545381384    0.0700
     34 H34       -14.0642   -3.1346   54.7538 H       1  ZINC000545381384    0.0900
     35 H35       -13.7368   -4.0645   53.2718 H       1  ZINC000545381384    0.0800
     36 H36       -11.3792   -3.4628   52.6966 H       1  ZINC000545381384    0.0500
     37 H37       -12.6453   -3.1386   51.4834 H       1  ZINC000545381384    0.0900
     38 H38       -10.4276   -1.9919   51.0184 H       1  ZINC000545381384    0.1000
     39 H39       -11.8206   -0.8914   51.1213 H       1  ZINC000545381384    0.1000
     40 H40       -12.7241   -1.2624   55.2157 H       1  ZINC000545381384    0.0900
     41 H41       -11.7203   -2.7057   54.9627 H       1  ZINC000545381384    0.0700
     42 H42        -9.6433   -1.9309   56.9566 H       1  ZINC000545381384    0.4100
     43 H43       -12.8476   -1.5645   58.4441 H       1  ZINC000545381384    0.1700
     44 H44       -13.9378   -2.2317   60.8274 H       1  ZINC000545381384    0.0800
     45 H45       -12.8749   -2.2520   62.2551 H       1  ZINC000545381384    0.0800
     46 H46       -11.6921    0.5545   61.8463 H       1  ZINC000545381384    0.0500
     47 H47       -12.9224    1.4351   62.7839 H       1  ZINC000545381384    0.0500
     48 H48       -12.2736   -0.1063   63.3934 H       1  ZINC000545381384    0.0800
     49 H49       -14.8509   -0.0709   59.9785 H       1  ZINC000545381384    0.0600
     50 H50       -14.4274    1.4558   60.7898 H       1  ZINC000545381384    0.0600
     51 H51       -13.1972    0.5752   59.8521 H       1  ZINC000545381384    0.0600
     52 H52       -14.5948   -1.0133   63.5708 H       1  ZINC000545381384    0.0500
     53 H53       -15.2437    0.5282   62.9613 H       1  ZINC000545381384    0.0500
     54 H54       -15.6671   -0.9986   62.1500 H       1  ZINC000545381384    0.0500
     55 H55        -7.9697   -2.1788   59.7082 H       1  ZINC000545381384    0.0800
     56 H56        -8.1165   -0.6181   58.8652 H       1  ZINC000545381384    0.0800
     57 H57        -8.1149   -0.6718   60.6443 H       1  ZINC000545381384    0.1000
     58 H58        -8.7714    1.3384   56.7348 H       1  ZINC000545381384    0.1300
     59 H59        -6.8914    2.7220   56.0283 H       1  ZINC000545381384    0.1300
     60 H60        -6.2177    2.8139   53.6663 H       1  ZINC000545381384    0.1400
     61 H61        -7.4093    1.5304   51.9761 H       1  ZINC000545381384    0.1400
@<TRIPOS>BOND
     1     1     2    1
     2     1    31    1
     3     1    32    1
     4     1    33    1
     5     2     3    1
     6     2    34    1
     7     2    35    1
     8     3     8    1
     9     3     4    1
    10     4     5    1
    11     4    36    1
    12     4    37    1
    13     5     6    1
    14     5    38    1
    15     5    39    1
    16     6    30   ar
    17     6     7   ar
    18     7     8    1
    19     7     9   ar
    20     8    40    1
    21     8    41    1
    22     9    10    1
    23     9    24   ar
    24    10    11    2
    25    10    12   am
    26    12    13    1
    27    12    42    1
    28    13    22    1
    29    13    14    2
    30    14    15    1
    31    14    43    1
    32    15    16    1
    33    15    21    2
    34    16    17    1
    35    16    44    1
    36    16    45    1
    37    17    18    1
    38    17    19    1
    39    17    20    1
    40    18    46    1
    41    18    47    1
    42    18    48    1
    43    19    49    1
    44    19    50    1
    45    19    51    1
    46    20    52    1
    47    20    53    1
    48    20    54    1
    49    21    22    1
    50    22    23    1
    51    23    55    1
    52    23    56    1
    53    23    57    1
    54    24    29   ar
    55    24    25   ar
    56    25    26   ar
    57    25    58    1
    58    26    27   ar
    59    26    59    1
    60    27    28   ar
    61    27    60    1
    62    28    29   ar
    63    28    61    1
    64    29    30   ar
@<TRIPOS>SUBSTRUCTURE
     1 ZINC000545381384        1 TEMP              0 ****  ****    0 ROOT


##########                                Name:    ZINC000753658424
##########                DOCK_Rotatable_Bonds:                   8
##########                         Heavy_Atoms:                  24
##########                    Molecular_Weight:             332.399
##########                DOCK_Rotatable_Bonds:                   8
##########                       Formal_Charge:        -9.16421e-07
##########                     HBond_Acceptors:                   6
##########                        HBond_Donors:                   3
##########                         Heavy_Atoms:                  24
##########                          Grid_Score:          -29.912079
##########                     Grid_vdw_energy:          -29.641750
##########                      Grid_es_energy:           -0.270328
##########           Internal_energy_repulsive:           18.259459

@<TRIPOS>MOLECULE
ZINC000753658424
 48 49 1 0 0
SMALL
USER_CHARGES


@<TRIPOS>ATOM
      1 C1         -7.9914    2.3515   53.9003 C.3     1  ZINC000753658424   -0.2000
      2 C2         -8.4416    1.8202   52.5639 C.2     1  ZINC000753658424    0.4400
      3 O3         -8.4899    2.5587   51.6025 O.2     1  ZINC000753658424   -0.4500
      4 C4         -8.8213    0.4109   52.4253 C.2     1  ZINC000753658424   -0.2500
      5 C5         -7.9712   -0.6493   52.1513 C.2     1  ZINC000753658424    0.1000
      6 C6         -6.4818   -0.5543   51.9419 C.3     1  ZINC000753658424   -0.1000
      7 N7         -8.7003   -1.7739   52.1050 N.pl3   1  ZINC000753658424   -0.5300
      8 C8        -10.0230   -1.4697   52.3452 C.2     1  ZINC000753658424   -0.0600
      9 C9        -11.1331   -2.4305   52.3787 C.2     1  ZINC000753658424    0.5900
     10 O10       -11.7020   -2.7388   51.3484 O.2     1  ZINC000753658424   -0.5200
     11 N11       -11.5217   -2.9706   53.5507 N.am    1  ZINC000753658424   -0.7300
     12 C12       -12.6302   -3.9278   53.5843 C.3     1  ZINC000753658424    0.0900
     13 C13       -13.4508   -3.7133   54.8577 C.3     1  ZINC000753658424    0.1900
     14 H14       -14.2188   -4.4834   54.9291 H       1  ZINC000753658424    0.1300
     15 O15       -14.0698   -2.4259   54.8140 O.3     1  ZINC000753658424   -0.5500
     16 C16       -12.5447   -3.7945   56.0590 C.2     1  ZINC000753658424   -0.0600
     17 C17       -12.2001   -4.9202   56.7096 C.2     1  ZINC000753658424   -0.1800
     18 C18       -11.3419   -4.5365   57.7658 C.2     1  ZINC000753658424   -0.2100
     19 C19       -11.2135   -3.1993   57.6973 C.2     1  ZINC000753658424    0.0000
     20 C20       -10.3889   -2.3444   58.6248 C.3     1  ZINC000753658424   -0.0800
     21 O21       -11.9395   -2.7558   56.6580 O.3     1  ZINC000753658424   -0.1700
     22 C22       -10.1247   -0.1269   52.5521 C.2     1  ZINC000753658424   -0.0100
     23 C23       -11.3864    0.6415   52.8498 C.3     1  ZINC000753658424   -0.0500
     24 C24       -12.4757    0.2392   51.8535 C.3     1  ZINC000753658424   -0.1500
     25 C25       -11.8534    0.3240   54.2718 C.3     1  ZINC000753658424   -0.1500
     26 H26        -7.6775    3.3896   53.7916 H       1  ZINC000753658424    0.0800
     27 H27        -8.8160    2.2938   54.6107 H       1  ZINC000753658424    0.1000
     28 H28        -7.1551    1.7553   54.2652 H       1  ZINC000753658424    0.0900
     29 H29        -5.9690   -0.7569   52.8820 H       1  ZINC000753658424    0.0900
     30 H30        -6.1727   -1.2851   51.1945 H       1  ZINC000753658424    0.0800
     31 H31        -6.2266    0.4478   51.5973 H       1  ZINC000753658424    0.0900
     32 H32        -8.3515   -2.6620   51.9300 H       1  ZINC000753658424    0.4200
     33 H33       -11.0673   -2.7256   54.3720 H       1  ZINC000753658424    0.4000
     34 H34       -13.2666   -3.7774   52.7123 H       1  ZINC000753658424    0.0900
     35 H35       -12.2340   -4.9432   53.5742 H       1  ZINC000753658424    0.0800
     36 H36       -14.5958   -2.2691   54.0179 H       1  ZINC000753658424    0.3900
     37 H37       -12.5183   -5.9244   56.4715 H       1  ZINC000753658424    0.1500
     38 H38       -10.8787   -5.1913   58.4889 H       1  ZINC000753658424    0.1500
     39 H39        -9.3783   -2.2480   58.2278 H       1  ZINC000753658424    0.0800
     40 H40       -10.8422   -1.3567   58.7079 H       1  ZINC000753658424    0.0800
     41 H41       -10.3496   -2.8102   59.6095 H       1  ZINC000753658424    0.0900
     42 H42       -11.1904    1.7101   52.7618 H       1  ZINC000753658424    0.1100
     43 H43       -12.7568   -0.8003   52.0227 H       1  ZINC000753658424    0.0500
     44 H44       -13.3478    0.8784   51.9908 H       1  ZINC000753658424    0.0600
     45 H45       -12.0984    0.3527   50.8372 H       1  ZINC000753658424    0.0600
     46 H46       -11.1124    0.6828   54.9861 H       1  ZINC000753658424    0.0500
     47 H47       -12.8073    0.8169   54.4595 H       1  ZINC000753658424    0.0600
     48 H48       -11.9731   -0.7536   54.3828 H       1  ZINC000753658424    0.0600
@<TRIPOS>BOND
     1     1     2    1
     2     1    26    1
     3     1    27    1
     4     1    28    1
     5     2     3    2
     6     2     4    1
     7     4    22    1
     8     4     5    2
     9     5     6    1
    10     5     7    1
    11     6    29    1
    12     6    30    1
    13     6    31    1
    14     7     8    1
    15     7    32    1
    16     8     9    1
    17     8    22    2
    18     9    10    2
    19     9    11   am
    20    11    12    1
    21    11    33    1
    22    12    13    1
    23    12    34    1
    24    12    35    1
    25    13    14    1
    26    13    15    1
    27    13    16    1
    28    15    36    1
    29    16    21    1
    30    16    17    2
    31    17    18    1
    32    17    37    1
    33    18    19    2
    34    18    38    1
    35    19    20    1
    36    19    21    1
    37    20    39    1
    38    20    40    1
    39    20    41    1
    40    22    23    1
    41    23    24    1
    42    23    25    1
    43    23    42    1
    44    24    43    1
    45    24    44    1
    46    24    45    1
    47    25    46    1
    48    25    47    1
    49    25    48    1
@<TRIPOS>SUBSTRUCTURE
     1 ZINC000753658424        1 TEMP              0 ****  ****    0 ROOT


##########                                Name:    ZINC000942661662
##########                DOCK_Rotatable_Bonds:                   6
##########                         Heavy_Atoms:                  25
##########                    Molecular_Weight:             343.426
##########                DOCK_Rotatable_Bonds:                   6
##########                       Formal_Charge:           0.0399997
##########                     HBond_Acceptors:                   6
##########                        HBond_Donors:                   1
##########                         Heavy_Atoms:                  25
##########                          Grid_Score:          -29.894131
##########                     Grid_vdw_energy:          -29.392408
##########                      Grid_es_energy:           -0.501722
##########           Internal_energy_repulsive:           30.186104

@<TRIPOS>MOLECULE
ZINC000942661662
 50 52 1 0 0
SMALL
USER_CHARGES


@<TRIPOS>ATOM
      1 C1        -14.2704   -1.4210   59.6090 C.3     1  ZINC000942661662   -0.1700
      2 C2        -12.9271   -0.9570   59.0424 C.3     1  ZINC000942661662    0.1000
      3 N3        -12.2475   -2.0892   58.4079 N.am    1  ZINC000942661662   -0.6000
      4 C4        -11.1098   -2.5768   58.9408 C.2     1  ZINC000942661662    0.6000
      5 O5        -10.5456   -3.5167   58.4141 O.2     1  ZINC000942661662   -0.5200
      6 C6        -10.5492   -1.9711   60.1618 C.2     1  ZINC000942661662   -0.2400
      7 C7         -9.3648   -1.3051   60.2830 C.2     1  ZINC000942661662    0.0700
      8 C8         -8.3779   -1.0524   59.1725 C.3     1  ZINC000942661662   -0.0900
      9 O9         -9.2285   -0.9147   61.5540 O.3     1  ZINC000942661662   -0.1700
     10 C10       -10.2842   -1.2981   62.2887 C.2     1  ZINC000942661662   -0.0300
     11 C11       -11.1524   -1.9529   61.5024 C.2     1  ZINC000942661662   -0.1900
     12 C12       -12.8049   -2.6913   57.1941 C.3     1  ZINC000942661662    0.1400
     13 H13       -13.7193   -2.1809   56.8918 H       1  ZINC000942661662    0.1100
     14 C14       -13.0545   -4.2099   57.3909 C.3     1  ZINC000942661662   -0.1400
     15 C15       -12.9569   -4.7652   55.9542 C.3     1  ZINC000942661662    0.1000
     16 N16       -12.1752   -3.8013   55.1660 N.am    1  ZINC000942661662   -0.6200
     17 C17       -11.8837   -3.9120   53.8547 C.2     1  ZINC000942661662    0.6100
     18 O18       -12.2792   -4.8737   53.2226 O.2     1  ZINC000942661662   -0.5200
     19 C19       -11.0899   -2.8733   53.1896 C.2     1  ZINC000942661662   -0.0600
     20 C20       -11.5839   -1.7777   52.5139 C.2     1  ZINC000942661662   -0.0700
     21 C21       -13.0361   -1.4245   52.3210 C.3     1  ZINC000942661662   -0.0900
     22 C22       -10.4833   -1.0557   52.0418 C.2     1  ZINC000942661662   -0.2100
     23 C23        -9.3613   -1.7084   52.4287 C.2     1  ZINC000942661662    0.0500
     24 C24        -7.9488   -1.2749   52.1319 C.3     1  ZINC000942661662   -0.0900
     25 N25        -9.7160   -2.8115   53.1316 N.pl3   1  ZINC000942661662   -0.5400
     26 C26       -11.7641   -2.6923   56.0468 C.3     1  ZINC000942661662    0.0900
     27 H27       -14.7761   -0.5786   60.0811 H       1  ZINC000942661662    0.0700
     28 H28       -14.8903   -1.8106   58.8015 H       1  ZINC000942661662    0.0600
     29 H29       -14.1020   -2.2043   60.3481 H       1  ZINC000942661662    0.0600
     30 H30       -13.0956   -0.1737   58.3034 H       1  ZINC000942661662    0.0900
     31 H31       -12.3072   -0.5674   59.8499 H       1  ZINC000942661662    0.0800
     32 H32        -8.6148   -0.1071   58.6841 H       1  ZINC000942661662    0.0900
     33 H33        -7.3703   -1.0055   59.5856 H       1  ZINC000942661662    0.0900
     34 H34        -8.4349   -1.8618   58.4447 H       1  ZINC000942661662    0.1000
     35 H35       -10.4163   -1.1059   63.3432 H       1  ZINC000942661662    0.2100
     36 H36       -12.0975   -2.3852   61.7962 H       1  ZINC000942661662    0.1600
     37 H37       -12.2852   -4.6481   58.0267 H       1  ZINC000942661662    0.1000
     38 H38       -14.0466   -4.3871   57.8062 H       1  ZINC000942661662    0.0900
     39 H39       -12.4530   -5.7316   55.9638 H       1  ZINC000942661662    0.0700
     40 H40       -13.9549   -4.8694   55.5285 H       1  ZINC000942661662    0.0700
     41 H41       -13.3695   -0.7945   53.1456 H       1  ZINC000942661662    0.0700
     42 H42       -13.1574   -0.8866   51.3807 H       1  ZINC000942661662    0.0600
     43 H43       -13.6319   -2.3370   52.2971 H       1  ZINC000942661662    0.0800
     44 H44       -10.5213   -0.1404   51.4697 H       1  ZINC000942661662    0.1400
     45 H45        -7.5923   -0.6257   52.9316 H       1  ZINC000942661662    0.0800
     46 H46        -7.3062   -2.1527   52.0628 H       1  ZINC000942661662    0.0700
     47 H47        -7.9261   -0.7328   51.1865 H       1  ZINC000942661662    0.0900
     48 H48        -9.1038   -3.4537   53.5237 H       1  ZINC000942661662    0.4100
     49 H49       -11.7939   -1.7468   55.5052 H       1  ZINC000942661662    0.0800
     50 H50       -10.7646   -2.8725   56.4422 H       1  ZINC000942661662    0.1000
@<TRIPOS>BOND
     1     1     2    1
     2     1    27    1
     3     1    28    1
     4     1    29    1
     5     2     3    1
     6     2    30    1
     7     2    31    1
     8     3     4   am
     9     3    12    1
    10     4     5    2
    11     4     6    1
    12     6    11    1
    13     6     7    2
    14     7     8    1
    15     7     9    1
    16     8    32    1
    17     8    33    1
    18     8    34    1
    19     9    10    1
    20    10    11    2
    21    10    35    1
    22    11    36    1
    23    12    13    1
    24    12    26    1
    25    12    14    1
    26    14    15    1
    27    14    37    1
    28    14    38    1
    29    15    16    1
    30    15    39    1
    31    15    40    1
    32    16    17   am
    33    16    26    1
    34    17    18    2
    35    17    19    1
    36    19    25    1
    37    19    20    2
    38    20    21    1
    39    20    22    1
    40    21    41    1
    41    21    42    1
    42    21    43    1
    43    22    23    2
    44    22    44    1
    45    23    24    1
    46    23    25    1
    47    24    45    1
    48    24    46    1
    49    24    47    1
    50    25    48    1
    51    26    49    1
    52    26    50    1
@<TRIPOS>SUBSTRUCTURE
     1 ZINC000942661662        1 TEMP              0 ****  ****    0 ROOT


##########                                Name:    ZINC000076573199
##########                DOCK_Rotatable_Bonds:                  10
##########                         Heavy_Atoms:                  24
##########                    Molecular_Weight:             333.431
##########                DOCK_Rotatable_Bonds:                  10
##########                       Formal_Charge:          -0.0200009
##########                     HBond_Acceptors:                   6
##########                        HBond_Donors:                   3
##########                         Heavy_Atoms:                  24
##########                          Grid_Score:          -29.884441
##########                     Grid_vdw_energy:          -28.746613
##########                      Grid_es_energy:           -1.137829
##########           Internal_energy_repulsive:           13.810440

@<TRIPOS>MOLECULE
ZINC000076573199
 51 51 1 0 0
SMALL
USER_CHARGES


@<TRIPOS>ATOM
      1 C1        -13.4144   -5.4081   56.3786 C.3     1  ZINC000076573199   -0.1500
      2 C2        -14.3710   -4.3329   55.8589 C.3     1  ZINC000076573199   -0.1200
      3 C3        -13.5818   -3.2868   55.0690 C.3     1  ZINC000076573199   -0.1000
      4 H4        -12.8163   -3.7832   54.4727 H       1  ZINC000076573199    0.0700
      5 C5        -12.9174   -2.3089   56.0400 C.3     1  ZINC000076573199   -0.1500
      6 C6        -14.5317   -2.5220   54.1451 C.3     1  ZINC000076573199   -0.1200
      7 C7        -13.9325   -2.4563   52.7389 C.3     1  ZINC000076573199    0.1400
      8 H8        -13.5906   -3.4479   52.4428 H       1  ZINC000076573199    0.1000
      9 C9        -14.9964   -1.9684   51.7534 C.3     1  ZINC000076573199   -0.1700
     10 N10       -12.7995   -1.5274   52.7338 N.am    1  ZINC000076573199   -0.6900
     11 C11       -11.6213   -1.9046   52.1988 C.2     1  ZINC000076573199    0.5100
     12 O12       -11.4985   -3.0141   51.7227 O.2     1  ZINC000076573199   -0.5100
     13 C13       -10.4669   -0.9571   52.1920 C.2     1  ZINC000076573199    0.5100
     14 O14       -10.6363    0.2038   51.8802 O.2     1  ZINC000076573199   -0.5000
     15 N15        -9.2370   -1.3909   52.5319 N.am    1  ZINC000076573199   -0.6400
     16 C16        -8.1570   -0.5044   52.5255 C.ar    1  ZINC000076573199    0.1500
     17 C17        -7.0816   -0.7242   51.6733 C.ar    1  ZINC000076573199   -0.1300
     18 C18        -6.0136    0.1523   51.6664 C.ar    1  ZINC000076573199   -0.0800
     19 C19        -6.0110    1.2496   52.5058 C.ar    1  ZINC000076573199   -0.1200
     20 C20        -4.8441    2.2031   52.4944 C.3     1  ZINC000076573199   -0.1100
     21 C21        -7.0832    1.4751   53.3604 C.ar    1  ZINC000076573199    0.1600
     22 N22        -7.0795    2.5867   54.2102 N.am    1  ZINC000076573199   -0.6700
     23 C23        -7.5901    3.7601   53.7871 C.2     1  ZINC000076573199    0.5100
     24 C24        -7.5861    4.9573   54.7023 C.3     1  ZINC000076573199   -0.1700
     25 O25        -8.0527    3.8525   52.6698 O.2     1  ZINC000076573199   -0.5200
     26 C26        -8.1595    0.6002   53.3664 C.ar    1  ZINC000076573199   -0.1400
     27 H27       -12.6694   -4.9482   57.0280 H       1  ZINC000076573199    0.0600
     28 H28       -13.9766   -6.1532   56.9413 H       1  ZINC000076573199    0.0500
     29 H29       -12.9157   -5.8884   55.5368 H       1  ZINC000076573199    0.0500
     30 H30       -15.1159   -4.7926   55.2095 H       1  ZINC000076573199    0.0600
     31 H31       -14.8695   -3.8525   56.7007 H       1  ZINC000076573199    0.0600
     32 H32       -13.6853   -1.7526   56.5777 H       1  ZINC000076573199    0.0600
     33 H33       -12.3049   -2.8629   56.7515 H       1  ZINC000076573199    0.0600
     34 H34       -12.2887   -1.6144   55.4830 H       1  ZINC000076573199    0.0500
     35 H35       -15.4927   -3.0349   54.1069 H       1  ZINC000076573199    0.0800
     36 H36       -14.6743   -1.5111   54.5270 H       1  ZINC000076573199    0.0700
     37 H37       -14.5694   -1.9216   50.7516 H       1  ZINC000076573199    0.0600
     38 H38       -15.8393   -2.6595   51.7572 H       1  ZINC000076573199    0.0700
     39 H39       -15.3383   -0.9766   52.0494 H       1  ZINC000076573199    0.0600
     40 H40       -12.8973   -0.6410   53.1153 H       1  ZINC000076573199    0.4100
     41 H41        -9.1016   -2.3186   52.7811 H       1  ZINC000076573199    0.4200
     42 H42        -7.0804   -1.5813   51.0162 H       1  ZINC000076573199    0.1400
     43 H43        -5.1788   -0.0208   51.0035 H       1  ZINC000076573199    0.1300
     44 H44        -5.0261    2.9911   51.7636 H       1  ZINC000076573199    0.0700
     45 H45        -4.7265    2.6452   53.4837 H       1  ZINC000076573199    0.0600
     46 H46        -3.9359    1.6627   52.2275 H       1  ZINC000076573199    0.0700
     47 H47        -6.7095    2.5129   55.1039 H       1  ZINC000076573199    0.4100
     48 H48        -6.5599    5.2007   54.9778 H       1  ZINC000076573199    0.0900
     49 H49        -8.0362    5.8078   54.1901 H       1  ZINC000076573199    0.1000
     50 H50        -8.1592    4.7295   55.6011 H       1  ZINC000076573199    0.0900
     51 H51        -8.9941    0.7734   54.0298 H       1  ZINC000076573199    0.1400
@<TRIPOS>BOND
     1     1     2    1
     2     1    27    1
     3     1    28    1
     4     1    29    1
     5     2     3    1
     6     2    30    1
     7     2    31    1
     8     3     4    1
     9     3     5    1
    10     3     6    1
    11     5    32    1
    12     5    33    1
    13     5    34    1
    14     6     7    1
    15     6    35    1
    16     6    36    1
    17     7     8    1
    18     7     9    1
    19     7    10    1
    20     9    37    1
    21     9    38    1
    22     9    39    1
    23    10    11   am
    24    10    40    1
    25    11    12    2
    26    11    13    1
    27    13    14    2
    28    13    15   am
    29    15    16    1
    30    15    41    1
    31    16    26   ar
    32    16    17   ar
    33    17    18   ar
    34    17    42    1
    35    18    19   ar
    36    18    43    1
    37    19    20    1
    38    19    21   ar
    39    20    44    1
    40    20    45    1
    41    20    46    1
    42    21    22    1
    43    21    26   ar
    44    22    23   am
    45    22    47    1
    46    23    24    1
    47    23    25    2
    48    24    48    1
    49    24    49    1
    50    24    50    1
    51    26    51    1
@<TRIPOS>SUBSTRUCTURE
     1 ZINC000076573199        1 TEMP              0 ****  ****    0 ROOT


##########                                Name:    ZINC001058079801
##########                DOCK_Rotatable_Bonds:                   7
##########                         Heavy_Atoms:                  24
##########                    Molecular_Weight:             349.457
##########                DOCK_Rotatable_Bonds:                   7
##########                       Formal_Charge:           0.0200001
##########                     HBond_Acceptors:                   8
##########                        HBond_Donors:                   0
##########                         Heavy_Atoms:                  24
##########                          Grid_Score:          -29.882040
##########                     Grid_vdw_energy:          -26.598305
##########                      Grid_es_energy:           -3.283735
##########           Internal_energy_repulsive:           19.034447

@<TRIPOS>MOLECULE
ZINC001058079801
 47 49 1 0 0
SMALL
USER_CHARGES


@<TRIPOS>ATOM
      1 C1          0.7250   -0.4671   46.8030 C.3     1  ZINC001058079801   -0.1500
      2 C2         -0.6799   -0.0273   46.3860 C.3     1  ZINC001058079801   -0.1200
      3 C3         -0.6765    1.4730   46.0861 C.3     1  ZINC001058079801   -0.0300
      4 C4         -0.3038    2.2336   47.3326 C.2     1  ZINC001058079801    0.2900
      5 N5          0.7777    2.9558   47.3805 N.2     1  ZINC001058079801   -0.4800
      6 S6          0.8147    3.6289   48.9405 S.3     1  ZINC001058079801    0.1900
      7 C7         -0.6548    2.8850   49.4462 C.2     1  ZINC001058079801    0.2700
      8 N8         -1.2742    2.9953   50.6780 N.3     1  ZINC001058079801   -0.4300
      9 C9         -2.3788    2.0354   50.7995 C.3     1  ZINC001058079801    0.0700
     10 C10        -2.9448    2.0842   52.2205 C.3     1  ZINC001058079801   -0.1300
     11 C11        -3.4408    3.5020   52.5185 C.3     1  ZINC001058079801    0.1300
     12 N12        -3.9305    3.5694   53.8976 N.am    1  ZINC001058079801   -0.6100
     13 C13        -2.9807    3.6754   55.0079 C.3     1  ZINC001058079801    0.0700
     14 C14        -5.2550    3.5339   54.1449 C.2     1  ZINC001058079801    0.5200
     15 O15        -6.0414    3.4477   53.2256 O.2     1  ZINC001058079801   -0.5300
     16 C16        -5.7587    3.6015   55.5636 C.3     1  ZINC001058079801   -0.0600
     17 C17        -7.2391    3.3208   55.5849 C.2     1  ZINC001058079801   -0.1900
     18 C18        -7.9178    2.3705   54.8986 C.2     1  ZINC001058079801   -0.0400
     19 O19        -9.2073    2.5046   55.2391 O.3     1  ZINC001058079801    0.1000
     20 N20        -9.3668    3.4049   56.0305 N.2     1  ZINC001058079801   -0.3600
     21 C21        -8.2404    3.9843   56.3308 C.2     1  ZINC001058079801    0.0000
     22 C22        -2.2832    4.4877   52.3378 C.3     1  ZINC001058079801   -0.1200
     23 C23        -1.7363    4.3691   50.9134 C.3     1  ZINC001058079801    0.0400
     24 N24        -1.0627    2.1932   48.4032 N.2     1  ZINC001058079801   -0.5300
     25 H25         0.7226   -1.5359   47.0168 H       1  ZINC001058079801    0.0600
     26 H26         1.4256   -0.2598   45.9943 H       1  ZINC001058079801    0.0600
     27 H27         1.0275    0.0812   47.6953 H       1  ZINC001058079801    0.0600
     28 H28        -0.9824   -0.5755   45.4938 H       1  ZINC001058079801    0.0700
     29 H29        -1.3805   -0.2346   47.1949 H       1  ZINC001058079801    0.0700
     30 H30         0.0490    1.6850   45.3007 H       1  ZINC001058079801    0.1000
     31 H31        -1.6691    1.7800   45.7564 H       1  ZINC001058079801    0.0900
     32 H32        -3.1629    2.2919   50.0871 H       1  ZINC001058079801    0.0600
     33 H33        -2.0118    1.0309   50.5891 H       1  ZINC001058079801    0.1000
     34 H34        -3.7749    1.3829   52.3059 H       1  ZINC001058079801    0.0800
     35 H35        -2.1649    1.8144   52.9324 H       1  ZINC001058079801    0.0800
     36 H36        -4.2483    3.7571   51.8323 H       1  ZINC001058079801    0.1000
     37 H37        -2.7845    4.7266   55.2191 H       1  ZINC001058079801    0.0600
     38 H38        -3.4021    3.1993   55.8933 H       1  ZINC001058079801    0.0800
     39 H39        -2.0487    3.1791   54.7374 H       1  ZINC001058079801    0.0800
     40 H40        -5.2393    2.8589   56.1693 H       1  ZINC001058079801    0.1100
     41 H41        -5.5716    4.5960   55.9686 H       1  ZINC001058079801    0.1100
     42 H42        -7.5021    1.6475   54.2125 H       1  ZINC001058079801    0.2200
     43 H43        -8.0996    4.8123   57.0097 H       1  ZINC001058079801    0.1900
     44 H44        -2.6404    5.5035   52.5070 H       1  ZINC001058079801    0.0900
     45 H45        -1.4928    4.2557   53.0516 H       1  ZINC001058079801    0.0800
     46 H46        -0.9025    5.0597   50.7859 H       1  ZINC001058079801    0.1000
     47 H47        -2.5234    4.6147   50.2006 H       1  ZINC001058079801    0.0700
@<TRIPOS>BOND
     1     1     2    1
     2     1    25    1
     3     1    26    1
     4     1    27    1
     5     2     3    1
     6     2    28    1
     7     2    29    1
     8     3     4    1
     9     3    30    1
    10     3    31    1
    11     4    24    1
    12     4     5    2
    13     5     6    1
    14     6     7    1
    15     7     8    1
    16     7    24    2
    17     8    23    1
    18     8     9    1
    19     9    10    1
    20     9    32    1
    21     9    33    1
    22    10    11    1
    23    10    34    1
    24    10    35    1
    25    11    12    1
    26    11    22    1
    27    11    36    1
    28    12    13    1
    29    12    14   am
    30    13    37    1
    31    13    38    1
    32    13    39    1
    33    14    15    2
    34    14    16    1
    35    16    17    1
    36    16    40    1
    37    16    41    1
    38    17    21    1
    39    17    18    2
    40    18    19    1
    41    18    42    1
    42    19    20    1
    43    20    21    2
    44    21    43    1
    45    22    23    1
    46    22    44    1
    47    22    45    1
    48    23    46    1
    49    23    47    1
@<TRIPOS>SUBSTRUCTURE
     1 ZINC001058079801        1 TEMP              0 ****  ****    0 ROOT


##########                                Name:    ZINC001074839487
##########                DOCK_Rotatable_Bonds:                   7
##########                         Heavy_Atoms:                  25
##########                    Molecular_Weight:             344.454
##########                DOCK_Rotatable_Bonds:                   7
##########                       Formal_Charge:          -0.0500005
##########                     HBond_Acceptors:                   5
##########                        HBond_Donors:                   1
##########                         Heavy_Atoms:                  25
##########                          Grid_Score:          -29.857599
##########                     Grid_vdw_energy:          -29.069216
##########                      Grid_es_energy:           -0.788383
##########           Internal_energy_repulsive:           91.048927

@<TRIPOS>MOLECULE
ZINC001074839487
 53 55 1 0 0
SMALL
USER_CHARGES


@<TRIPOS>ATOM
      1 C1         -8.9077   -0.4475   61.8312 C.3     1  ZINC001074839487   -0.1500
      2 C2        -10.0913   -0.8256   62.7240 C.3     1  ZINC001074839487   -0.1300
      3 C3        -11.3898   -0.7189   61.9219 C.3     1  ZINC001074839487   -0.1100
      4 C4        -11.4587   -1.8630   60.9083 C.3     1  ZINC001074839487   -0.1400
      5 C5        -12.8188   -1.8782   60.2596 C.2     1  ZINC001074839487    0.5100
      6 O6        -13.8139   -1.7145   60.9334 O.2     1  ZINC001074839487   -0.5400
      7 N7        -12.9295   -2.0735   58.9307 N.am    1  ZINC001074839487   -0.7300
      8 C8        -14.2515   -2.0865   58.2999 C.3     1  ZINC001074839487    0.1400
      9 H9        -14.9726   -1.6012   58.9577 H       1  ZINC001074839487    0.0900
     10 C10       -14.1887   -1.3341   56.9686 C.3     1  ZINC001074839487   -0.1500
     11 C11       -13.1498   -1.9983   56.0597 C.3     1  ZINC001074839487    0.0700
     12 N12       -13.4768   -3.4250   55.9316 N.am    1  ZINC001074839487   -0.6000
     13 C13       -13.6159   -3.9911   54.7164 C.2     1  ZINC001074839487    0.5600
     14 O14       -13.8864   -5.1725   54.6237 O.2     1  ZINC001074839487   -0.5200
     15 C15       -13.4394   -3.1753   53.4962 C.ar    1  ZINC001074839487   -0.1300
     16 C16       -12.1694   -3.0093   52.9420 C.ar    1  ZINC001074839487   -0.1000
     17 C17       -12.0102   -2.2464   51.8026 C.ar    1  ZINC001074839487   -0.1000
     18 C18       -13.1052   -1.6479   51.2111 C.ar    1  ZINC001074839487   -0.1100
     19 C19       -13.2543   -0.7735   49.9874 C.3     1  ZINC001074839487    0.0900
     20 O20       -14.5329   -0.1257   50.1172 O.3     1  ZINC001074839487   -0.3600
     21 C21       -15.3363   -1.0390   50.8867 C.3     1  ZINC001074839487    0.0900
     22 C22       -14.3709   -1.8091   51.7575 C.ar    1  ZINC001074839487   -0.1400
     23 C23       -14.5438   -2.5721   52.8902 C.ar    1  ZINC001074839487   -0.0400
     24 C24       -13.6498   -4.2226   57.1533 C.3     1  ZINC001074839487    0.1500
     25 H25       -12.6984   -4.2945   57.6805 H       1  ZINC001074839487    0.0700
     26 C26       -14.1428   -5.6236   56.7856 C.3     1  ZINC001074839487   -0.1400
     27 C27       -14.6830   -3.5335   58.0500 C.3     1  ZINC001074839487   -0.1400
     28 H28        -8.8647   -1.1252   60.9786 H       1  ZINC001074839487    0.0500
     29 H29        -7.9826   -0.5235   62.4027 H       1  ZINC001074839487    0.0500
     30 H30        -9.0325    0.5755   61.4763 H       1  ZINC001074839487    0.0500
     31 H31        -9.9665   -1.8486   63.0790 H       1  ZINC001074839487    0.0600
     32 H32       -10.1342   -0.1479   63.5767 H       1  ZINC001074839487    0.0600
     33 H33       -12.2415   -0.7817   62.5992 H       1  ZINC001074839487    0.0700
     34 H34       -11.4140    0.2351   61.3951 H       1  ZINC001074839487    0.0700
     35 H35       -10.6937   -1.7189   60.1453 H       1  ZINC001074839487    0.0900
     36 H36       -11.2889   -2.8110   61.4186 H       1  ZINC001074839487    0.0900
     37 H37       -12.1336   -2.2056   58.3920 H       1  ZINC001074839487    0.4000
     38 H38       -15.1660   -1.3646   56.4870 H       1  ZINC001074839487    0.0800
     39 H39       -13.9041   -0.2976   57.1498 H       1  ZINC001074839487    0.0800
     40 H40       -13.1712   -1.5288   55.0763 H       1  ZINC001074839487    0.1200
     41 H41       -12.1577   -1.8888   56.4978 H       1  ZINC001074839487    0.0700
     42 H42       -11.3124   -3.4773   53.4036 H       1  ZINC001074839487    0.1500
     43 H43       -11.0278   -2.1177   51.3729 H       1  ZINC001074839487    0.1400
     44 H44       -12.4578   -0.0299   49.9579 H       1  ZINC001074839487    0.1000
     45 H45       -13.2325   -1.3841   49.0848 H       1  ZINC001074839487    0.0800
     46 H46       -16.0429   -0.4871   51.5065 H       1  ZINC001074839487    0.1000
     47 H47       -15.8696   -1.7202   50.2238 H       1  ZINC001074839487    0.0800
     48 H48       -15.5299   -2.7006   53.3115 H       1  ZINC001074839487    0.1400
     49 H49       -13.3621   -6.1514   56.2378 H       1  ZINC001074839487    0.0800
     50 H50       -14.3841   -6.1741   57.6950 H       1  ZINC001074839487    0.0500
     51 H51       -15.0333   -5.5434   56.1623 H       1  ZINC001074839487    0.0700
     52 H52       -14.7502   -4.0623   59.0006 H       1  ZINC001074839487    0.0900
     53 H53       -15.6557   -3.5432   57.5581 H       1  ZINC001074839487    0.0900
@<TRIPOS>BOND
     1     1     2    1
     2     1    28    1
     3     1    29    1
     4     1    30    1
     5     2     3    1
     6     2    31    1
     7     2    32    1
     8     3     4    1
     9     3    33    1
    10     3    34    1
    11     4     5    1
    12     4    35    1
    13     4    36    1
    14     5     6    2
    15     5     7   am
    16     7     8    1
    17     7    37    1
    18     8     9    1
    19     8    27    1
    20     8    10    1
    21    10    11    1
    22    10    38    1
    23    10    39    1
    24    11    12    1
    25    11    40    1
    26    11    41    1
    27    12    13   am
    28    12    24    1
    29    13    14    2
    30    13    15    1
    31    15    23   ar
    32    15    16   ar
    33    16    17   ar
    34    16    42    1
    35    17    18   ar
    36    17    43    1
    37    18    22   ar
    38    18    19    1
    39    19    20    1
    40    19    44    1
    41    19    45    1
    42    20    21    1
    43    21    22    1
    44    21    46    1
    45    21    47    1
    46    22    23   ar
    47    23    48    1
    48    24    25    1
    49    24    26    1
    50    24    27    1
    51    26    49    1
    52    26    50    1
    53    26    51    1
    54    27    52    1
    55    27    53    1
@<TRIPOS>SUBSTRUCTURE
     1 ZINC001074839487        1 TEMP              0 ****  ****    0 ROOT


##########                                Name:    ZINC000587344575
##########                DOCK_Rotatable_Bonds:                   7
##########                         Heavy_Atoms:                  30
##########                    Molecular_Weight:             408.475
##########                DOCK_Rotatable_Bonds:                   7
##########                       Formal_Charge:          -0.0100002
##########                     HBond_Acceptors:                   7
##########                        HBond_Donors:                   2
##########                         Heavy_Atoms:                  30
##########                          Grid_Score:          -29.842918
##########                     Grid_vdw_energy:          -26.682257
##########                      Grid_es_energy:           -3.160662
##########           Internal_energy_repulsive:           12.777987

@<TRIPOS>MOLECULE
ZINC000587344575
 55 57 1 0 0
SMALL
USER_CHARGES


@<TRIPOS>ATOM
      1 C1        -11.0577   -2.1205   59.3230 C.3     1  ZINC000587344575   -0.1200
      2 C2        -11.0743   -0.6191   59.4515 C.ar    1  ZINC000587344575    0.0000
      3 C3        -10.1426    0.1402   58.7807 C.ar    1  ZINC000587344575   -0.1600
      4 C4        -10.1576    1.5266   58.8985 C.ar    1  ZINC000587344575    0.1800
      5 N5         -9.2125    2.2929   58.2172 N.am    1  ZINC000587344575   -0.6700
      6 C6         -9.2520    2.3723   56.8724 C.2     1  ZINC000587344575    0.5200
      7 O7        -10.1094    1.7771   56.2547 O.2     1  ZINC000587344575   -0.5000
      8 C8         -8.2306    3.2004   56.1361 C.3     1  ZINC000587344575   -0.1200
      9 H9         -7.7340    3.8858   56.8228 H       1  ZINC000587344575    0.1100
     10 C10        -8.9040    3.9860   54.9875 C.3     1  ZINC000587344575   -0.1200
     11 C11        -7.8570    3.9003   53.8486 C.3     1  ZINC000587344575    0.0400
     12 N12        -7.3096    2.5271   53.9928 N.3     1  ZINC000587344575   -0.4800
     13 C13        -6.0671    2.4170   53.3721 C.ar    1  ZINC000587344575    0.0700
     14 C14        -5.0410    3.2913   53.7138 C.ar    1  ZINC000587344575   -0.1200
     15 C15        -3.8115    3.1860   53.1021 C.ar    1  ZINC000587344575   -0.0700
     16 C16        -3.5942    2.1989   52.1370 C.ar    1  ZINC000587344575    0.0000
     17 C17        -2.3166    2.0871   51.4999 C.1     1  ZINC000587344575    0.2500
     18 N18        -1.3031    1.9984   50.9945 N.1     1  ZINC000587344575   -0.4000
     19 C19        -4.6271    1.3202   51.7949 C.ar    1  ZINC000587344575   -0.1000
     20 C20        -5.8534    1.4274   52.4142 C.ar    1  ZINC000587344575    0.1300
     21 F21        -6.8522    0.5791   52.0855 F       1  ZINC000587344575   -0.1200
     22 C22        -7.1967    2.2883   55.4503 C.3     1  ZINC000587344575    0.0500
     23 C23       -11.1137    2.1500   59.6938 C.ar    1  ZINC000587344575   -0.1400
     24 C24       -12.0486    1.3965   60.3675 C.ar    1  ZINC000587344575   -0.0600
     25 C25       -12.0396    0.0043   60.2472 C.ar    1  ZINC000587344575   -0.1600
     26 C26       -13.0406   -0.8068   60.9675 C.2     1  ZINC000587344575    0.5600
     27 O27       -12.9412   -0.9692   62.1683 O.2     1  ZINC000587344575   -0.5300
     28 N28       -14.0647   -1.3672   60.2941 N.am    1  ZINC000587344575   -0.7200
     29 C29       -15.0592   -2.1707   61.0094 C.3     1  ZINC000587344575    0.1400
     30 C30       -16.1373   -1.2518   61.5873 C.3     1  ZINC000587344575   -0.1600
     31 C31       -15.7026   -3.1659   60.0415 C.3     1  ZINC000587344575   -0.1600
     32 H32       -11.7742   -2.4280   58.5614 H       1  ZINC000587344575    0.0800
     33 H33       -10.0589   -2.4495   59.0361 H       1  ZINC000587344575    0.0600
     34 H34       -11.3277   -2.5700   60.2786 H       1  ZINC000587344575    0.1000
     35 H35        -9.3988   -0.3406   58.1627 H       1  ZINC000587344575    0.1300
     36 H36        -8.5267    2.7688   58.7112 H       1  ZINC000587344575    0.4100
     37 H37        -9.8379    3.5091   54.6895 H       1  ZINC000587344575    0.0900
     38 H38        -9.0746    5.0228   55.2774 H       1  ZINC000587344575    0.0900
     39 H39        -8.3346    4.0240   52.8767 H       1  ZINC000587344575    0.0900
     40 H40        -7.0727    4.6439   53.9904 H       1  ZINC000587344575    0.0600
     41 H41        -5.2087    4.0542   54.4596 H       1  ZINC000587344575    0.1400
     42 H42        -3.0158    3.8662   53.3679 H       1  ZINC000587344575    0.1400
     43 H43        -4.4626    0.5562   51.0495 H       1  ZINC000587344575    0.1500
     44 H44        -6.1923    2.5399   55.7911 H       1  ZINC000587344575    0.0600
     45 H45        -7.4167    1.2443   55.6737 H       1  ZINC000587344575    0.1100
     46 H46       -11.1223    3.2263   59.7833 H       1  ZINC000587344575    0.1400
     47 H47       -12.7905    1.8810   60.9848 H       1  ZINC000587344575    0.1300
     48 H48       -14.1433   -1.2387   59.3359 H       1  ZINC000587344575    0.4000
     49 H49       -14.5728   -2.7144   61.8192 H       1  ZINC000587344575    0.0900
     50 H50       -16.6238   -0.7081   60.7774 H       1  ZINC000587344575    0.0600
     51 H51       -16.8772   -1.8496   62.1195 H       1  ZINC000587344575    0.0700
     52 H52       -15.6789   -0.5428   62.2769 H       1  ZINC000587344575    0.0600
     53 H53       -16.1891   -2.6223   59.2315 H       1  ZINC000587344575    0.0600
     54 H54       -14.9346   -3.8205   59.6297 H       1  ZINC000587344575    0.0600
     55 H55       -16.4425   -3.7637   60.5736 H       1  ZINC000587344575    0.0700
@<TRIPOS>BOND
     1     1     2    1
     2     1    32    1
     3     1    33    1
     4     1    34    1
     5     2    25   ar
     6     2     3   ar
     7     3     4   ar
     8     3    35    1
     9     4     5    1
    10     4    23   ar
    11     5     6   am
    12     5    36    1
    13     6     7    2
    14     6     8    1
    15     8     9    1
    16     8    22    1
    17     8    10    1
    18    10    11    1
    19    10    37    1
    20    10    38    1
    21    11    12    1
    22    11    39    1
    23    11    40    1
    24    12    13    1
    25    12    22    1
    26    13    20   ar
    27    13    14   ar
    28    14    15   ar
    29    14    41    1
    30    15    16   ar
    31    15    42    1
    32    16    17    1
    33    16    19   ar
    34    17    18    3
    35    19    20   ar
    36    19    43    1
    37    20    21    1
    38    22    44    1
    39    22    45    1
    40    23    24   ar
    41    23    46    1
    42    24    25   ar
    43    24    47    1
    44    25    26    1
    45    26    27    2
    46    26    28   am
    47    28    29    1
    48    28    48    1
    49    29    30    1
    50    29    31    1
    51    29    49    1
    52    30    50    1
    53    30    51    1
    54    30    52    1
    55    31    53    1
    56    31    54    1
    57    31    55    1
@<TRIPOS>SUBSTRUCTURE
     1 ZINC000587344575        1 TEMP              0 ****  ****    0 ROOT


##########                                Name:    ZINC000481050680
##########                DOCK_Rotatable_Bonds:                   7
##########                         Heavy_Atoms:                  29
##########                    Molecular_Weight:              412.46
##########                DOCK_Rotatable_Bonds:                   7
##########                       Formal_Charge:          -0.0199997
##########                     HBond_Acceptors:                   7
##########                        HBond_Donors:                   1
##########                         Heavy_Atoms:                  29
##########                          Grid_Score:          -29.834114
##########                     Grid_vdw_energy:          -29.585564
##########                      Grid_es_energy:           -0.248550
##########           Internal_energy_repulsive:            6.480947

@<TRIPOS>MOLECULE
ZINC000481050680
 47 49 1 0 0
SMALL
USER_CHARGES


@<TRIPOS>ATOM
      1 N1        -15.3772   -2.3417   62.0589 N.1     1  ZINC000481050680   -0.3900
      2 C2        -14.6868   -2.4586   61.1645 C.1     1  ZINC000481050680    0.2500
      3 C3        -13.8163   -2.6061   60.0370 C.ar    1  ZINC000481050680    0.0200
      4 C4        -14.2627   -3.2614   58.8879 C.ar    1  ZINC000481050680   -0.0800
      5 C5        -13.4201   -3.4002   57.8041 C.ar    1  ZINC000481050680   -0.0800
      6 C6        -12.1348   -2.8921   57.8532 C.ar    1  ZINC000481050680   -0.1000
      7 C7        -11.2205   -3.0478   56.6654 C.3     1  ZINC000481050680   -0.5900
      8 S8        -11.3393   -1.5745   55.6137 S.o2    1  ZINC000481050680    2.6000
      9 O9        -12.6730   -1.0847   55.5904 O.2     1  ZINC000481050680   -0.9300
     10 O10       -10.2426   -0.7026   55.8512 O.2     1  ZINC000481050680   -0.9400
     11 N11       -11.0854   -2.1412   54.0785 N.am    1  ZINC000481050680   -1.1100
     12 C12       -11.1090   -1.2160   52.9429 C.3     1  ZINC000481050680    0.2100
     13 H13       -11.7034   -0.3395   53.2008 H       1  ZINC000481050680    0.1000
     14 C14       -11.7282   -1.9133   51.7299 C.3     1  ZINC000481050680   -0.0800
     15 C15       -13.2198   -1.6988   51.7344 C.ar    1  ZINC000481050680   -0.0900
     16 C16       -13.7579   -0.5729   51.1397 C.ar    1  ZINC000481050680   -0.1200
     17 C17       -15.1262   -0.3760   51.1439 C.ar    1  ZINC000481050680   -0.1200
     18 C18       -15.9563   -1.3053   51.7424 C.ar    1  ZINC000481050680   -0.1200
     19 C19       -15.4183   -2.4315   52.3364 C.ar    1  ZINC000481050680   -0.1200
     20 C20       -14.0503   -2.6306   52.3284 C.ar    1  ZINC000481050680   -0.1200
     21 C21        -9.7018   -0.7895   52.6131 C.ar    1  ZINC000481050680   -0.1300
     22 C22        -8.7628   -1.7327   52.2416 C.ar    1  ZINC000481050680   -0.0700
     23 C23        -7.4716   -1.3416   51.9390 C.ar    1  ZINC000481050680   -0.1300
     24 C24        -7.1184   -0.0070   52.0082 C.ar    1  ZINC000481050680   -0.0900
     25 C25        -8.0558    0.9381   52.3801 C.ar    1  ZINC000481050680   -0.1500
     26 C26        -9.3507    0.5486   52.6769 C.ar    1  ZINC000481050680    0.1100
     27 F27       -10.2678    1.4715   53.0404 F       1  ZINC000481050680   -0.1400
     28 C28       -11.6841   -2.2398   58.9901 C.ar    1  ZINC000481050680    0.1200
     29 F29       -10.4274   -1.7455   59.0307 F       1  ZINC000481050680   -0.1200
     30 C30       -12.5197   -2.0900   60.0801 C.ar    1  ZINC000481050680   -0.1000
     31 H31       -15.2660   -3.6594   58.8473 H       1  ZINC000481050680    0.1500
     32 H32       -13.7650   -3.9075   56.9152 H       1  ZINC000481050680    0.1500
     33 H33       -10.1933   -3.1660   57.0105 H       1  ZINC000481050680    0.1500
     34 H34       -11.5150   -3.9274   56.0931 H       1  ZINC000481050680    0.1500
     35 H35       -10.9210   -3.0859   53.9313 H       1  ZINC000481050680    0.4200
     36 H36       -11.3040   -1.4972   50.8161 H       1  ZINC000481050680    0.0900
     37 H37       -11.5144   -2.9810   51.7763 H       1  ZINC000481050680    0.0900
     38 H38       -13.1094    0.1532   50.6720 H       1  ZINC000481050680    0.1200
     39 H39       -15.5466    0.5039   50.6798 H       1  ZINC000481050680    0.1200
     40 H40       -17.0253   -1.1511   51.7463 H       1  ZINC000481050680    0.1200
     41 H41       -16.0668   -3.1574   52.8044 H       1  ZINC000481050680    0.1200
     42 H42       -13.6299   -3.5105   52.7925 H       1  ZINC000481050680    0.1200
     43 H43        -9.0375   -2.7758   52.1879 H       1  ZINC000481050680    0.1300
     44 H44        -6.7384   -2.0795   51.6487 H       1  ZINC000481050680    0.1300
     45 H45        -6.1094    0.2973   51.7719 H       1  ZINC000481050680    0.1300
     46 H46        -7.7794    1.9808   52.4347 H       1  ZINC000481050680    0.1400
     47 H47       -12.1686   -1.5814   60.9658 H       1  ZINC000481050680    0.1600
@<TRIPOS>BOND
     1     1     2    3
     2     2     3    1
     3     3    30   ar
     4     3     4   ar
     5     4     5   ar
     6     4    31    1
     7     5     6   ar
     8     5    32    1
     9     6     7    1
    10     6    28   ar
    11     7     8    1
    12     7    33    1
    13     7    34    1
    14     8     9    2
    15     8    10    2
    16     8    11   am
    17    11    12    1
    18    11    35    1
    19    12    13    1
    20    12    14    1
    21    12    21    1
    22    14    15    1
    23    14    36    1
    24    14    37    1
    25    15    20   ar
    26    15    16   ar
    27    16    17   ar
    28    16    38    1
    29    17    18   ar
    30    17    39    1
    31    18    19   ar
    32    18    40    1
    33    19    20   ar
    34    19    41    1
    35    20    42    1
    36    21    26   ar
    37    21    22   ar
    38    22    23   ar
    39    22    43    1
    40    23    24   ar
    41    23    44    1
    42    24    25   ar
    43    24    45    1
    44    25    26   ar
    45    25    46    1
    46    26    27    1
    47    28    29    1
    48    28    30   ar
    49    30    47    1
@<TRIPOS>SUBSTRUCTURE
     1 ZINC000481050680        1 TEMP              0 ****  ****    0 ROOT


##########                                Name:    ZINC000979274057
##########                DOCK_Rotatable_Bonds:                   6
##########                         Heavy_Atoms:                  24
##########                    Molecular_Weight:              330.39
##########                DOCK_Rotatable_Bonds:                   6
##########                       Formal_Charge:          0.00999946
##########                     HBond_Acceptors:                   8
##########                        HBond_Donors:                   1
##########                         Heavy_Atoms:                  24
##########                          Grid_Score:          -29.819847
##########                     Grid_vdw_energy:          -29.713741
##########                      Grid_es_energy:           -0.106105
##########           Internal_energy_repulsive:           11.950040

@<TRIPOS>MOLECULE
ZINC000979274057
 46 48 1 0 0
SMALL
USER_CHARGES


@<TRIPOS>ATOM
      1 C1         -0.4175    2.2295   51.6243 C.3     1  ZINC000979274057   -0.1400
      2 C2         -1.3288    2.3720   50.4036 C.3     1  ZINC000979274057    0.1000
      3 H3         -1.4809    3.4291   50.1852 H       1  ZINC000979274057    0.0600
      4 N4         -2.6243    1.7385   50.6829 N.3     1  ZINC000979274057   -0.6700
      5 C5         -3.3595    2.4775   51.7180 C.3     1  ZINC000979274057    0.1300
      6 C6         -4.6885    1.8106   51.9632 C.ar    1  ZINC000979274057    0.3200
      7 N7         -4.7972    0.5101   51.7789 N.ar    1  ZINC000979274057   -0.5200
      8 C8         -5.9481   -0.1099   51.9843 C.ar    1  ZINC000979274057    0.1500
      9 C9         -7.0464    0.6273   52.3984 C.ar    1  ZINC000979274057   -0.2300
     10 C10        -6.8930    1.9925   52.5814 C.ar    1  ZINC000979274057    0.1500
     11 N11        -5.7096    2.5425   52.3616 N.ar    1  ZINC000979274057   -0.5000
     12 C12        -0.6772    1.6909   49.1985 C.3     1  ZINC000979274057    0.0800
     13 H13        -0.3466    0.6912   49.4800 H       1  ZINC000979274057    0.0700
     14 C14         0.5277    2.5166   48.7331 C.3     1  ZINC000979274057    0.0800
     15 N15         1.0200    1.9471   47.4688 N.am    1  ZINC000979274057   -0.6000
     16 C16         2.3241    1.6502   47.3028 C.2     1  ZINC000979274057    0.6100
     17 O17         3.1135    1.8526   48.2056 O.2     1  ZINC000979274057   -0.5400
     18 C18         2.7935    1.0805   46.0279 C.2     1  ZINC000979274057   -0.0600
     19 C19         3.4364    1.7548   45.0314 C.2     1  ZINC000979274057    0.0400
     20 N20         3.6867    0.8583   44.0484 N.pl3   1  ZINC000979274057   -0.4600
     21 C21         4.3630    1.1349   42.7786 C.3     1  ZINC000979274057    0.0700
     22 C22         3.1985   -0.3439   44.4506 C.2     1  ZINC000979274057    0.1900
     23 N23         2.6703   -0.2126   45.6332 N.2     1  ZINC000979274057   -0.4600
     24 C24         0.0464    1.7111   46.3909 C.3     1  ZINC000979274057    0.0500
     25 C25        -1.1351    0.9247   46.9704 C.3     1  ZINC000979274057    0.0500
     26 O26        -1.6252    1.5978   48.1324 O.3     1  ZINC000979274057   -0.3600
     27 H27        -0.8817    2.7148   52.4829 H       1  ZINC000979274057    0.0600
     28 H28        -0.2655    1.1725   51.8428 H       1  ZINC000979274057    0.0700
     29 H29         0.5438    2.6996   51.4171 H       1  ZINC000979274057    0.0600
     30 H30        -3.1738    1.6524   49.8410 H       1  ZINC000979274057    0.3500
     31 H31        -2.7800    2.4831   52.6413 H       1  ZINC000979274057    0.1000
     32 H32        -3.5231    3.5025   51.3856 H       1  ZINC000979274057    0.0600
     33 H33        -6.0306   -1.1757   51.8311 H       1  ZINC000979274057    0.1700
     34 H34        -7.9989    0.1493   52.5738 H       1  ZINC000979274057    0.1500
     35 H35        -7.7269    2.5987   52.9030 H       1  ZINC000979274057    0.1700
     36 H36         0.2247    3.5518   48.5762 H       1  ZINC000979274057    0.0700
     37 H37         1.3147    2.4740   49.4860 H       1  ZINC000979274057    0.1000
     38 H38         3.6958    2.8031   45.0274 H       1  ZINC000979274057    0.1900
     39 H39         5.4356    0.9808   42.8971 H       1  ZINC000979274057    0.0800
     40 H40         3.9821    0.4625   42.0100 H       1  ZINC000979274057    0.0900
     41 H41         4.1748    2.1673   42.4839 H       1  ZINC000979274057    0.0900
     42 H42         3.2448   -1.2614   43.8828 H       1  ZINC000979274057    0.2100
     43 H43        -0.3051    2.6652   45.9981 H       1  ZINC000979274057    0.0700
     44 H44         0.5146    1.1351   45.5928 H       1  ZINC000979274057    0.1500
     45 H45        -1.9287    0.8586   46.2260 H       1  ZINC000979274057    0.1100
     46 H46        -0.8063   -0.0782   47.2430 H       1  ZINC000979274057    0.0500
@<TRIPOS>BOND
     1     1     2    1
     2     1    27    1
     3     1    28    1
     4     1    29    1
     5     2     3    1
     6     2     4    1
     7     2    12    1
     8     4     5    1
     9     4    30    1
    10     5     6    1
    11     5    31    1
    12     5    32    1
    13     6    11   ar
    14     6     7   ar
    15     7     8   ar
    16     8     9   ar
    17     8    33    1
    18     9    10   ar
    19     9    34    1
    20    10    11   ar
    21    10    35    1
    22    12    13    1
    23    12    26    1
    24    12    14    1
    25    14    15    1
    26    14    36    1
    27    14    37    1
    28    15    16   am
    29    15    24    1
    30    16    17    2
    31    16    18    1
    32    18    23    1
    33    18    19    2
    34    19    20    1
    35    19    38    1
    36    20    21    1
    37    20    22    1
    38    21    39    1
    39    21    40    1
    40    21    41    1
    41    22    23    2
    42    22    42    1
    43    24    25    1
    44    24    43    1
    45    24    44    1
    46    25    26    1
    47    25    45    1
    48    25    46    1
@<TRIPOS>SUBSTRUCTURE
     1 ZINC000979274057        1 TEMP              0 ****  ****    0 ROOT


##########                                Name:    ZINC000548281822
##########                DOCK_Rotatable_Bonds:                   6
##########                         Heavy_Atoms:                  24
##########                    Molecular_Weight:             332.406
##########                DOCK_Rotatable_Bonds:                   6
##########                       Formal_Charge:        -5.58794e-08
##########                     HBond_Acceptors:                   8
##########                        HBond_Donors:                   2
##########                         Heavy_Atoms:                  24
##########                          Grid_Score:          -29.812553
##########                     Grid_vdw_energy:          -29.729801
##########                      Grid_es_energy:           -0.082752
##########           Internal_energy_repulsive:            6.223774

@<TRIPOS>MOLECULE
ZINC000548281822
 48 50 1 0 0
SMALL
USER_CHARGES


@<TRIPOS>ATOM
      1 C1         -8.4766    3.0092   51.6323 C.3     1  ZINC000548281822   -0.1700
      2 C2         -7.8385    1.9841   52.5720 C.3     1  ZINC000548281822    0.2600
      3 H3         -8.1192    2.2100   53.6007 H       1  ZINC000548281822    0.1400
      4 N4         -8.3080    0.6415   52.2213 N.am    1  ZINC000548281822   -0.7400
      5 C5         -9.4218    0.1457   52.7958 C.2     1  ZINC000548281822    0.7100
      6 O6        -10.0361    0.8120   53.6063 O.2     1  ZINC000548281822   -0.5700
      7 N7         -9.8547   -1.0890   52.4719 N.am    1  ZINC000548281822   -0.7400
      8 C8        -11.0664   -1.6272   53.0951 C.3     1  ZINC000548281822    0.1600
      9 H9        -11.6948   -0.8056   53.4387 H       1  ZINC000548281822    0.1000
     10 C10       -11.8372   -2.4676   52.0727 C.3     1  ZINC000548281822   -0.1400
     11 C11       -13.2111   -2.8349   52.6441 C.3     1  ZINC000548281822    0.1100
     12 N12       -13.0296   -3.3988   53.9838 N.pl3   1  ZINC000548281822   -0.4600
     13 C13       -13.9191   -4.1365   54.7067 C.2     1  ZINC000548281822   -0.0500
     14 C14       -13.3158   -4.4343   55.8754 C.2     1  ZINC000548281822   -0.0300
     15 N15       -12.0885   -3.8892   55.8614 N.2     1  ZINC000548281822   -0.4900
     16 C16       -11.9093   -3.2672   54.7330 C.2     1  ZINC000548281822    0.2100
     17 C17       -10.6798   -2.5103   54.2883 C.3     1  ZINC000548281822   -0.0500
     18 C18        -6.3388    2.0433   52.4362 C.2     1  ZINC000548281822    0.1700
     19 N19        -5.5532    3.0024   52.8632 N.2     1  ZINC000548281822   -0.4600
     20 C20        -4.3070    2.6281   52.5230 C.2     1  ZINC000548281822    0.1900
     21 C21        -3.0395    3.3967   52.7944 C.3     1  ZINC000548281822    0.0200
     22 C22        -1.9266    2.8852   51.8775 C.3     1  ZINC000548281822   -0.1400
     23 C23        -3.2777    4.8841   52.5265 C.3     1  ZINC000548281822   -0.1400
     24 C24        -2.6272    3.2012   54.2548 C.3     1  ZINC000548281822   -0.1400
     25 N25        -4.3966    1.4817   51.9176 N.2     1  ZINC000548281822   -0.3700
     26 O26        -5.5549    1.1255   51.8625 O.3     1  ZINC000548281822    0.0800
     27 H27        -8.1958    2.7833   50.6036 H       1  ZINC000548281822    0.0700
     28 H28        -9.5612    2.9664   51.7306 H       1  ZINC000548281822    0.0900
     29 H29        -8.1272    4.0082   51.8933 H       1  ZINC000548281822    0.0800
     30 H30        -7.8173    0.1093   51.5756 H       1  ZINC000548281822    0.4000
     31 H31        -9.3639   -1.6211   51.8262 H       1  ZINC000548281822    0.4000
     32 H32       -11.9671   -1.8941   51.1550 H       1  ZINC000548281822    0.1000
     33 H33       -11.2787   -3.3782   51.8560 H       1  ZINC000548281822    0.0800
     34 H34       -13.8322   -1.9414   52.7048 H       1  ZINC000548281822    0.0900
     35 H35       -13.6897   -3.5720   51.9993 H       1  ZINC000548281822    0.1000
     36 H36       -14.9142   -4.4259   54.4027 H       1  ZINC000548281822    0.1800
     37 H37       -13.7449   -5.0099   56.6821 H       1  ZINC000548281822    0.1700
     38 H38        -9.9033   -3.2140   53.9883 H       1  ZINC000548281822    0.0900
     39 H39       -10.3163   -1.8870   55.1053 H       1  ZINC000548281822    0.1000
     40 H40        -2.2203    3.0244   50.8371 H       1  ZINC000548281822    0.0600
     41 H41        -1.0098    3.4410   52.0738 H       1  ZINC000548281822    0.0700
     42 H42        -1.7569    1.8254   52.0684 H       1  ZINC000548281822    0.0700
     43 H43        -4.0704    5.2485   53.1797 H       1  ZINC000548281822    0.0600
     44 H44        -2.3609    5.4400   52.7227 H       1  ZINC000548281822    0.0700
     45 H45        -3.5713    5.0234   51.4861 H       1  ZINC000548281822    0.0600
     46 H46        -2.4575    2.1415   54.4458 H       1  ZINC000548281822    0.0700
     47 H47        -1.7104    3.7571   54.4511 H       1  ZINC000548281822    0.0700
     48 H48        -3.4200    3.5657   54.9081 H       1  ZINC000548281822    0.0600
@<TRIPOS>BOND
     1     1     2    1
     2     1    27    1
     3     1    28    1
     4     1    29    1
     5     2     3    1
     6     2     4    1
     7     2    18    1
     8     4     5   am
     9     4    30    1
    10     5     6    2
    11     5     7   am
    12     7     8    1
    13     7    31    1
    14     8     9    1
    15     8    17    1
    16     8    10    1
    17    10    11    1
    18    10    32    1
    19    10    33    1
    20    11    12    1
    21    11    34    1
    22    11    35    1
    23    12    16    1
    24    12    13    1
    25    13    14    2
    26    13    36    1
    27    14    15    1
    28    14    37    1
    29    15    16    2
    30    16    17    1
    31    17    38    1
    32    17    39    1
    33    18    26    1
    34    18    19    2
    35    19    20    1
    36    20    21    1
    37    20    25    2
    38    21    22    1
    39    21    23    1
    40    21    24    1
    41    22    40    1
    42    22    41    1
    43    22    42    1
    44    23    43    1
    45    23    44    1
    46    23    45    1
    47    24    46    1
    48    24    47    1
    49    24    48    1
    50    25    26    1
@<TRIPOS>SUBSTRUCTURE
     1 ZINC000548281822        1 TEMP              0 ****  ****    0 ROOT


##########                                Name:    ZINC001456607258
##########                DOCK_Rotatable_Bonds:                   9
##########                         Heavy_Atoms:                  25
##########                    Molecular_Weight:             339.437
##########                DOCK_Rotatable_Bonds:                   9
##########                       Formal_Charge:          -0.0200009
##########                     HBond_Acceptors:                   5
##########                        HBond_Donors:                   2
##########                         Heavy_Atoms:                  25
##########                          Grid_Score:          -29.759773
##########                     Grid_vdw_energy:          -25.476730
##########                      Grid_es_energy:           -4.283043
##########           Internal_energy_repulsive:           10.367012

@<TRIPOS>MOLECULE
ZINC001456607258
 50 52 1 0 0
SMALL
USER_CHARGES


@<TRIPOS>ATOM
      1 C1          0.5705   -0.1014   46.3873 C.3     1  ZINC001456607258   -0.1600
      2 C2          1.1766    1.2848   46.6161 C.3     1  ZINC001456607258   -0.1100
      3 C3          0.0543    2.3067   46.8083 C.3     1  ZINC001456607258   -0.1000
      4 H4         -0.5223    2.3906   45.8871 H       1  ZINC001456607258    0.0900
      5 C5          0.6586    3.6683   47.1574 C.3     1  ZINC001456607258   -0.0700
      6 C6          1.3161    4.2544   45.9347 C.ar    1  ZINC001456607258   -0.0800
      7 C7          0.5596    4.9470   45.0079 C.ar    1  ZINC001456607258   -0.1200
      8 C8          1.1627    5.4846   43.8863 C.ar    1  ZINC001456607258   -0.1200
      9 C9          2.5225    5.3299   43.6916 C.ar    1  ZINC001456607258   -0.1200
     10 C10         3.2792    4.6382   44.6187 C.ar    1  ZINC001456607258   -0.1200
     11 C11         2.6769    4.1043   45.7425 C.ar    1  ZINC001456607258   -0.1200
     12 C12        -0.8491    1.8563   47.9273 C.2     1  ZINC001456607258    0.5200
     13 O13        -1.9894    1.5198   47.6879 O.2     1  ZINC001456607258   -0.5300
     14 N14        -0.3897    1.8272   49.1940 N.am    1  ZINC001456607258   -0.7300
     15 C15        -1.2678    1.3894   50.2818 C.3     1  ZINC001456607258    0.1300
     16 C16        -2.2318    2.5203   50.6456 C.3     1  ZINC001456607258   -0.1400
     17 C17        -2.6330    2.5388   52.1317 C.3     1  ZINC001456607258    0.1100
     18 N18        -2.4685    4.0034   52.0544 N.am    1  ZINC001456607258   -0.6500
     19 C19        -2.9702    5.0479   52.7429 C.2     1  ZINC001456607258    0.6100
     20 O20        -2.6481    6.1827   52.4466 O.2     1  ZINC001456607258   -0.5400
     21 C21        -3.9083    4.8150   53.8539 C.2     1  ZINC001456607258   -0.2300
     22 C22        -3.7521    3.9377   54.8915 C.2     1  ZINC001456607258    0.0400
     23 N23        -4.8316    4.0286   55.6911 N.pl3   1  ZINC001456607258   -0.5500
     24 C24        -5.7065    4.9544   55.2018 C.2     1  ZINC001456607258   -0.0200
     25 C25        -5.1961    5.4816   54.0748 C.2     1  ZINC001456607258   -0.1400
     26 C26        -1.5344    3.8649   50.9203 C.3     1  ZINC001456607258    0.1100
     27 H27         1.3650   -0.8122   46.1598 H       1  ZINC001456607258    0.0600
     28 H28         0.0439   -0.4207   47.2867 H       1  ZINC001456607258    0.0600
     29 H29        -0.1289   -0.0588   45.5525 H       1  ZINC001456607258    0.0600
     30 H30         1.8053    1.2639   47.5064 H       1  ZINC001456607258    0.0800
     31 H31         1.7792    1.5649   45.7522 H       1  ZINC001456607258    0.0700
     32 H32        -0.1293    4.3378   47.5025 H       1  ZINC001456607258    0.0800
     33 H33         1.4015    3.5448   47.9454 H       1  ZINC001456607258    0.0900
     34 H34        -0.5028    5.0678   45.1601 H       1  ZINC001456607258    0.1200
     35 H35         0.5715    6.0251   43.1619 H       1  ZINC001456607258    0.1200
     36 H36         2.9936    5.7493   42.8149 H       1  ZINC001456607258    0.1200
     37 H37         4.3416    4.5170   44.4664 H       1  ZINC001456607258    0.1200
     38 H38         3.2681    3.5638   46.4670 H       1  ZINC001456607258    0.1200
     39 H39         0.5224    2.0963   49.3854 H       1  ZINC001456607258    0.4000
     40 H40        -1.8364    0.5165   49.9608 H       1  ZINC001456607258    0.0700
     41 H41        -0.6659    1.1306   51.1529 H       1  ZINC001456607258    0.0800
     42 H42        -3.0762    2.5959   49.9604 H       1  ZINC001456607258    0.1100
     43 H43        -3.6597    2.2211   52.3137 H       1  ZINC001456607258    0.0800
     44 H44        -1.9125    2.0499   52.7874 H       1  ZINC001456607258    0.0900
     45 H45        -2.9066    3.2830   55.0434 H       1  ZINC001456607258    0.1700
     46 H46        -4.9681    3.5098   56.4993 H       1  ZINC001456607258    0.4200
     47 H47        -6.6519    5.2235   55.6492 H       1  ZINC001456607258    0.1700
     48 H48        -5.6480    6.2396   53.4521 H       1  ZINC001456607258    0.1500
     49 H49        -0.4911    3.7655   51.2201 H       1  ZINC001456607258    0.0900
     50 H50        -1.6839    4.6059   50.1350 H       1  ZINC001456607258    0.0900
@<TRIPOS>BOND
     1     1     2    1
     2     1    27    1
     3     1    28    1
     4     1    29    1
     5     2     3    1
     6     2    30    1
     7     2    31    1
     8     3     4    1
     9     3     5    1
    10     3    12    1
    11     5     6    1
    12     5    32    1
    13     5    33    1
    14     6    11   ar
    15     6     7   ar
    16     7     8   ar
    17     7    34    1
    18     8     9   ar
    19     8    35    1
    20     9    10   ar
    21     9    36    1
    22    10    11   ar
    23    10    37    1
    24    11    38    1
    25    12    13    2
    26    12    14   am
    27    14    15    1
    28    14    39    1
    29    15    16    1
    30    15    40    1
    31    15    41    1
    32    16    26    1
    33    16    17    1
    34    16    42    1
    35    17    18    1
    36    17    43    1
    37    17    44    1
    38    18    19   am
    39    18    26    1
    40    19    20    2
    41    19    21    1
    42    21    25    1
    43    21    22    2
    44    22    23    1
    45    22    45    1
    46    23    24    1
    47    23    46    1
    48    24    25    2
    49    24    47    1
    50    25    48    1
    51    26    49    1
    52    26    50    1
@<TRIPOS>SUBSTRUCTURE
     1 ZINC001456607258        1 TEMP              0 ****  ****    0 ROOT


##########                                Name:    ZINC000655982608
##########                DOCK_Rotatable_Bonds:                   5
##########                         Heavy_Atoms:                  29
##########                    Molecular_Weight:             388.469
##########                DOCK_Rotatable_Bonds:                   5
##########                       Formal_Charge:          -0.0200006
##########                     HBond_Acceptors:                   6
##########                        HBond_Donors:                   0
##########                         Heavy_Atoms:                  29
##########                          Grid_Score:          -29.740154
##########                     Grid_vdw_energy:          -28.224258
##########                      Grid_es_energy:           -1.515895
##########           Internal_energy_repulsive:           21.946783

@<TRIPOS>MOLECULE
ZINC000655982608
 53 57 1 0 0
SMALL
USER_CHARGES


@<TRIPOS>ATOM
      1 C1         -8.1268    2.6827   52.3047 C.3     1  ZINC000655982608   -0.1900
      2 C2         -7.1495    1.7937   53.0764 C.3     1  ZINC000655982608    0.0800
      3 H3         -6.7669    1.0156   52.4159 H       1  ZINC000655982608    0.1000
      4 C4         -5.9857    2.6428   53.5919 C.3     1  ZINC000655982608   -0.0300
      5 C5         -4.7839    2.4385   52.7059 C.2     1  ZINC000655982608    0.2000
      6 N6         -3.7857    3.2724   52.5395 N.2     1  ZINC000655982608   -0.4800
      7 C7         -2.9552    2.6735   51.6675 C.2     1  ZINC000655982608    0.1700
      8 C8         -1.6537    3.2294   51.1496 C.3     1  ZINC000655982608   -0.0100
      9 H9         -1.4350    4.1947   51.6060 H       1  ZINC000655982608    0.1300
     10 C10        -0.4948    2.2323   51.3815 C.3     1  ZINC000655982608   -0.1400
     11 C11         0.3719    2.3778   50.1502 C.2     1  ZINC000655982608    0.5200
     12 O12         1.5158    1.9860   50.0555 O.2     1  ZINC000655982608   -0.5000
     13 N13        -0.3106    3.0040   49.1759 N.am    1  ZINC000655982608   -0.5600
     14 C14         0.2110    3.3003   47.9118 C.ar    1  ZINC000655982608    0.1600
     15 C15         1.4875    3.8345   47.7935 C.ar    1  ZINC000655982608   -0.1600
     16 C16         1.9995    4.1260   46.5443 C.ar    1  ZINC000655982608   -0.0900
     17 C17         1.2423    3.8869   45.4122 C.ar    1  ZINC000655982608   -0.1400
     18 C18        -0.0291    3.3556   45.5266 C.ar    1  ZINC000655982608   -0.0900
     19 C19        -0.5444    3.0557   46.7725 C.ar    1  ZINC000655982608   -0.1600
     20 C20        -1.6732    3.3380   49.6087 C.3     1  ZINC000655982608    0.1100
     21 N21        -3.4809    1.5273   51.3539 N.2     1  ZINC000655982608   -0.3700
     22 O22        -4.5290    1.3704   51.9442 O.3     1  ZINC000655982608    0.0900
     23 N23        -7.8441    1.1736   54.2125 N.3     1  ZINC000655982608   -0.4700
     24 C24        -8.1623    2.1774   55.2512 C.3     1  ZINC000655982608    0.0300
     25 C25        -9.4652    1.6216   55.8707 C.3     1  ZINC000655982608   -0.0800
     26 C26       -10.0493    0.7960   54.7417 C.ar    1  ZINC000655982608   -0.1400
     27 C27       -11.3134    0.2829   54.5430 C.ar    1  ZINC000655982608   -0.0800
     28 C28       -11.5938   -0.4473   53.4018 C.ar    1  ZINC000655982608   -0.1400
     29 C29       -10.6042   -0.6612   52.4603 C.ar    1  ZINC000655982608   -0.0900
     30 C30        -9.3371   -0.1517   52.6554 C.ar    1  ZINC000655982608   -0.1400
     31 C31        -9.0458    0.5820   53.8039 C.ar    1  ZINC000655982608    0.1000
     32 H32        -7.6440    3.0542   51.4009 H       1  ZINC000655982608    0.0700
     33 H33        -9.0089    2.1028   52.0334 H       1  ZINC000655982608    0.0700
     34 H34        -8.4237    3.5245   52.9303 H       1  ZINC000655982608    0.0700
     35 H35        -6.2707    3.6948   53.5808 H       1  ZINC000655982608    0.1200
     36 H36        -5.7410    2.3433   54.6109 H       1  ZINC000655982608    0.1100
     37 H37         0.0661    2.5011   52.2767 H       1  ZINC000655982608    0.1200
     38 H38        -0.8772    1.2147   51.4609 H       1  ZINC000655982608    0.1200
     39 H39         2.0789    4.0222   48.6774 H       1  ZINC000655982608    0.1200
     40 H40         2.9920    4.5414   46.4517 H       1  ZINC000655982608    0.1300
     41 H41         1.6449    4.1159   44.4366 H       1  ZINC000655982608    0.1200
     42 H42        -0.6182    3.1705   44.6405 H       1  ZINC000655982608    0.1300
     43 H43        -1.5375    2.6407   46.8612 H       1  ZINC000655982608    0.1500
     44 H44        -2.3865    2.6282   49.1900 H       1  ZINC000655982608    0.0900
     45 H45        -1.9273    4.3533   49.3043 H       1  ZINC000655982608    0.1000
     46 H46        -7.3695    2.2261   55.9976 H       1  ZINC000655982608    0.1000
     47 H47        -8.3339    3.1561   54.8034 H       1  ZINC000655982608    0.0700
     48 H48        -9.2450    0.9939   56.7341 H       1  ZINC000655982608    0.0900
     49 H49       -10.1394    2.4333   56.1441 H       1  ZINC000655982608    0.0800
     50 H50       -12.0856    0.4506   55.2792 H       1  ZINC000655982608    0.1200
     51 H51       -12.5841   -0.8497   53.2467 H       1  ZINC000655982608    0.1200
     52 H52       -10.8239   -1.2297   51.5688 H       1  ZINC000655982608    0.1300
     53 H53        -8.5683   -0.3227   51.9164 H       1  ZINC000655982608    0.1200
@<TRIPOS>BOND
     1     1     2    1
     2     1    32    1
     3     1    33    1
     4     1    34    1
     5     2     3    1
     6     2     4    1
     7     2    23    1
     8     4     5    1
     9     4    35    1
    10     4    36    1
    11     5    22    1
    12     5     6    2
    13     6     7    1
    14     7     8    1
    15     7    21    2
    16     8     9    1
    17     8    20    1
    18     8    10    1
    19    10    11    1
    20    10    37    1
    21    10    38    1
    22    11    12    2
    23    11    13   am
    24    13    14    1
    25    13    20    1
    26    14    19   ar
    27    14    15   ar
    28    15    16   ar
    29    15    39    1
    30    16    17   ar
    31    16    40    1
    32    17    18   ar
    33    17    41    1
    34    18    19   ar
    35    18    42    1
    36    19    43    1
    37    20    44    1
    38    20    45    1
    39    21    22    1
    40    23    31    1
    41    23    24    1
    42    24    25    1
    43    24    46    1
    44    24    47    1
    45    25    26    1
    46    25    48    1
    47    25    49    1
    48    26    31   ar
    49    26    27   ar
    50    27    28   ar
    51    27    50    1
    52    28    29   ar
    53    28    51    1
    54    29    30   ar
    55    29    52    1
    56    30    31   ar
    57    30    53    1
@<TRIPOS>SUBSTRUCTURE
     1 ZINC000655982608        1 TEMP              0 ****  ****    0 ROOT


##########                                Name:    ZINC000417533280
##########                DOCK_Rotatable_Bonds:                   9
##########                         Heavy_Atoms:                  26
##########                    Molecular_Weight:             367.439
##########                DOCK_Rotatable_Bonds:                   9
##########                       Formal_Charge:         -0.00999999
##########                     HBond_Acceptors:                   7
##########                        HBond_Donors:                   2
##########                         Heavy_Atoms:                  26
##########                          Grid_Score:          -29.734539
##########                     Grid_vdw_energy:          -29.069946
##########                      Grid_es_energy:           -0.664594
##########           Internal_energy_repulsive:           20.967916

@<TRIPOS>MOLECULE
ZINC000417533280
 53 54 1 0 0
SMALL
USER_CHARGES


@<TRIPOS>ATOM
      1 C1         -8.1992   -0.3548   52.5845 C.3     1  ZINC000417533280   -0.1600
      2 C2         -9.2933   -1.3310   52.1476 C.3     1  ZINC000417533280   -0.1200
      3 C3        -10.6663   -0.7180   52.4299 C.3     1  ZINC000417533280   -0.1200
      4 C4        -11.7448   -1.5278   51.7072 C.3     1  ZINC000417533280   -0.1300
      5 C5        -11.4673   -3.0216   51.8873 C.3     1  ZINC000417533280    0.1200
      6 N6        -11.5467   -3.3651   53.3092 N.am    1  ZINC000417533280   -0.7300
      7 C7        -12.7480   -3.4712   53.9108 C.2     1  ZINC000417533280    0.5200
      8 O8        -13.7634   -3.2839   53.2746 O.2     1  ZINC000417533280   -0.5400
      9 C9        -12.8296   -3.8229   55.3740 C.3     1  ZINC000417533280   -0.1100
     10 C10       -11.9318   -2.8781   56.1762 C.3     1  ZINC000417533280   -0.1300
     11 C11       -11.9904   -3.2603   57.6585 C.3     1  ZINC000417533280    0.1300
     12 N12       -13.3950   -3.2690   58.0894 N.am    1  ZINC000417533280   -0.6200
     13 C13       -13.7892   -2.5516   59.1602 C.2     1  ZINC000417533280    0.7100
     14 O14       -12.9794   -1.8890   59.7795 O.2     1  ZINC000417533280   -0.5600
     15 N15       -15.0809   -2.5688   59.5444 N.am    1  ZINC000417533280   -0.6800
     16 C16       -15.4905   -1.8234   60.6571 C.ar    1  ZINC000417533280    0.1900
     17 C17       -15.2469   -2.2974   61.9389 C.ar    1  ZINC000417533280   -0.1100
     18 C18       -15.6509   -1.5612   63.0362 C.ar    1  ZINC000417533280   -0.1100
     19 C19       -16.2986   -0.3512   62.8589 C.ar    1  ZINC000417533280    0.0500
     20 F20       -16.6924    0.3671   63.9332 F       1  ZINC000417533280   -0.1300
     21 C21       -16.5435    0.1251   61.5794 C.ar    1  ZINC000417533280    0.0900
     22 F22       -17.1758    1.3066   61.4080 F       1  ZINC000417533280   -0.1200
     23 C23       -16.1356   -0.6068   60.4793 C.ar    1  ZINC000417533280   -0.1300
     24 C24       -16.4008   -0.0898   59.0888 C.3     1  ZINC000417533280   -0.1200
     25 C25       -14.3618   -4.0742   57.3307 C.3     1  ZINC000417533280    0.1100
     26 C26       -14.2766   -3.6828   55.8520 C.3     1  ZINC000417533280   -0.1200
     27 H27        -8.3018    0.5778   52.0297 H       1  ZINC000417533280    0.0500
     28 H28        -8.2955   -0.1551   53.6518 H       1  ZINC000417533280    0.0500
     29 H29        -7.2211   -0.7916   52.3834 H       1  ZINC000417533280    0.0500
     30 H30        -9.1970   -1.5308   51.0804 H       1  ZINC000417533280    0.0600
     31 H31        -9.1907   -2.2637   52.7024 H       1  ZINC000417533280    0.0600
     32 H32       -10.8577   -0.7341   53.5028 H       1  ZINC000417533280    0.0700
     33 H33       -10.6849    0.3117   52.0728 H       1  ZINC000417533280    0.0700
     34 H34       -12.7219   -1.2866   52.1259 H       1  ZINC000417533280    0.0700
     35 H35       -11.7336   -1.2815   50.6455 H       1  ZINC000417533280    0.0700
     36 H36       -12.2074   -3.5981   51.3323 H       1  ZINC000417533280    0.0700
     37 H37       -10.4703   -3.2536   51.5125 H       1  ZINC000417533280    0.0700
     38 H38       -10.7346   -3.5161   53.8178 H       1  ZINC000417533280    0.4000
     39 H39       -12.4969   -4.8505   55.5196 H       1  ZINC000417533280    0.1000
     40 H40       -10.9053   -2.9613   55.8193 H       1  ZINC000417533280    0.0800
     41 H41       -12.2790   -1.8524   56.0509 H       1  ZINC000417533280    0.0800
     42 H42       -11.5593   -4.2518   57.7975 H       1  ZINC000417533280    0.0700
     43 H43       -11.4323   -2.5314   58.2462 H       1  ZINC000417533280    0.1000
     44 H44       -15.7268   -3.0974   59.0502 H       1  ZINC000417533280    0.4100
     45 H45       -14.7419   -3.2418   62.0784 H       1  ZINC000417533280    0.1700
     46 H46       -15.4614   -1.9307   64.0331 H       1  ZINC000417533280    0.1500
     47 H47       -15.5611    0.5241   58.7631 H       1  ZINC000417533280    0.0800
     48 H48       -16.5228   -0.9305   58.4058 H       1  ZINC000417533280    0.0700
     49 H49       -17.3103    0.5108   59.0919 H       1  ZINC000417533280    0.0800
     50 H50       -14.1242   -5.1320   57.4430 H       1  ZINC000417533280    0.0800
     51 H51       -15.3684   -3.8822   57.7022 H       1  ZINC000417533280    0.0800
     52 H52       -14.6018   -2.6496   55.7299 H       1  ZINC000417533280    0.0800
     53 H53       -14.9189   -4.3388   55.2646 H       1  ZINC000417533280    0.0900
@<TRIPOS>BOND
     1     1     2    1
     2     1    27    1
     3     1    28    1
     4     1    29    1
     5     2     3    1
     6     2    30    1
     7     2    31    1
     8     3     4    1
     9     3    32    1
    10     3    33    1
    11     4     5    1
    12     4    34    1
    13     4    35    1
    14     5     6    1
    15     5    36    1
    16     5    37    1
    17     6     7   am
    18     6    38    1
    19     7     8    2
    20     7     9    1
    21     9    26    1
    22     9    10    1
    23     9    39    1
    24    10    11    1
    25    10    40    1
    26    10    41    1
    27    11    12    1
    28    11    42    1
    29    11    43    1
    30    12    13   am
    31    12    25    1
    32    13    14    2
    33    13    15   am
    34    15    16    1
    35    15    44    1
    36    16    23   ar
    37    16    17   ar
    38    17    18   ar
    39    17    45    1
    40    18    19   ar
    41    18    46    1
    42    19    20    1
    43    19    21   ar
    44    21    22    1
    45    21    23   ar
    46    23    24    1
    47    24    47    1
    48    24    48    1
    49    24    49    1
    50    25    26    1
    51    25    50    1
    52    25    51    1
    53    26    52    1
    54    26    53    1
@<TRIPOS>SUBSTRUCTURE
     1 ZINC000417533280        1 TEMP              0 ****  ****    0 ROOT


##########                                Name:    ZINC000450219577
##########                DOCK_Rotatable_Bonds:                   8
##########                         Heavy_Atoms:                  26
##########                    Molecular_Weight:             353.421
##########                DOCK_Rotatable_Bonds:                   8
##########                       Formal_Charge:          -0.0199997
##########                     HBond_Acceptors:                   6
##########                        HBond_Donors:                   1
##########                         Heavy_Atoms:                  26
##########                          Grid_Score:          -29.730085
##########                     Grid_vdw_energy:          -29.696018
##########                      Grid_es_energy:           -0.034067
##########           Internal_energy_repulsive:           36.042503

@<TRIPOS>MOLECULE
ZINC000450219577
 49 51 1 0 0
SMALL
USER_CHARGES


@<TRIPOS>ATOM
      1 C1          0.0969    2.0647   50.6628 C.3     1  ZINC000450219577   -0.1800
      2 C2         -0.9545    2.6080   49.6930 C.3     1  ZINC000450219577    0.1200
      3 C3         -0.4432    3.9035   49.0598 C.3     1  ZINC000450219577   -0.1800
      4 C4         -1.2192    1.5743   48.5965 C.3     1  ZINC000450219577   -0.1400
      5 O5         -2.1861    2.8749   50.4142 O.3     1  ZINC000450219577   -0.3400
      6 C6         -2.1137    3.7258   51.4497 C.2     1  ZINC000450219577    0.4700
      7 O7         -1.0848    4.3182   51.6740 O.2     1  ZINC000450219577   -0.5000
      8 C8         -3.3157    3.9423   52.3325 C.3     1  ZINC000450219577    0.2000
      9 H9         -3.8393    4.8453   52.0184 H       1  ZINC000450219577    0.1400
     10 N10        -4.2164    2.7922   52.2218 N.am    1  ZINC000450219577   -0.7100
     11 C11        -5.4866    2.8860   52.6624 C.2     1  ZINC000450219577    0.5800
     12 O12        -5.8854    3.9255   53.1504 O.2     1  ZINC000450219577   -0.5200
     13 C13        -6.3949    1.7249   52.5524 C.ar    1  ZINC000450219577   -0.2500
     14 C14        -5.9862    0.5499   51.9115 C.ar    1  ZINC000450219577    0.1900
     15 N15        -6.8304   -0.4639   51.8363 N.ar    1  ZINC000450219577   -0.5100
     16 C16        -8.0403   -0.3793   52.3537 C.ar    1  ZINC000450219577    0.3800
     17 C17        -8.9660   -1.5631   52.2420 C.3     1  ZINC000450219577   -0.1100
     18 C18       -10.0215   -1.7402   53.3354 C.3     1  ZINC000450219577   -0.1500
     19 C19       -10.4387   -1.2820   51.9366 C.3     1  ZINC000450219577   -0.1500
     20 N20        -8.4659    0.7082   52.9664 N.ar    1  ZINC000450219577   -0.5200
     21 C21        -7.6857    1.7675   53.0914 C.ar    1  ZINC000450219577    0.2200
     22 C22        -2.8675    4.0935   53.7633 C.ar    1  ZINC000450219577   -0.1100
     23 C23        -2.7714    5.3514   54.3284 C.ar    1  ZINC000450219577   -0.1000
     24 C24        -2.3605    5.4899   55.6409 C.ar    1  ZINC000450219577   -0.1200
     25 C25        -2.0459    4.3705   56.3885 C.ar    1  ZINC000450219577   -0.1100
     26 C26        -2.1428    3.1126   55.8238 C.ar    1  ZINC000450219577   -0.1200
     27 C27        -2.5580    2.9737   54.5125 C.ar    1  ZINC000450219577   -0.0800
     28 H28         0.2856    2.8011   51.4440 H       1  ZINC000450219577    0.0800
     29 H29        -0.2674    1.1417   51.1138 H       1  ZINC000450219577    0.0600
     30 H30         1.0215    1.8643   50.1214 H       1  ZINC000450219577    0.0700
     31 H31         0.4814    3.7031   48.5184 H       1  ZINC000450219577    0.0700
     32 H32        -1.1921    4.2905   48.3688 H       1  ZINC000450219577    0.0600
     33 H33        -0.2545    4.6399   49.8410 H       1  ZINC000450219577    0.0800
     34 H34        -1.5836    0.6513   49.0476 H       1  ZINC000450219577    0.0700
     35 H35        -1.9682    1.9613   47.9056 H       1  ZINC000450219577    0.0700
     36 H36        -0.2946    1.3738   48.0551 H       1  ZINC000450219577    0.0800
     37 H37        -3.8986    1.9631   51.8313 H       1  ZINC000450219577    0.4100
     38 H38        -4.9970    0.4732   51.4848 H       1  ZINC000450219577    0.1700
     39 H39        -8.5268   -2.4648   51.8153 H       1  ZINC000450219577    0.1300
     40 H40       -10.2767   -2.7587   53.6284 H       1  ZINC000450219577    0.1000
     41 H41       -10.0463   -1.0005   54.1356 H       1  ZINC000450219577    0.1100
     42 H42       -10.7379   -0.2408   51.8164 H       1  ZINC000450219577    0.1000
     43 H43       -10.9683   -1.9990   51.3092 H       1  ZINC000450219577    0.1100
     44 H44        -8.0413    2.6546   53.5944 H       1  ZINC000450219577    0.1800
     45 H45        -3.0173    6.2259   53.7443 H       1  ZINC000450219577    0.1200
     46 H46        -2.2847    6.4727   56.0821 H       1  ZINC000450219577    0.1200
     47 H47        -1.7240    4.4789   57.4137 H       1  ZINC000450219577    0.1300
     48 H48        -1.8967    2.2381   56.4078 H       1  ZINC000450219577    0.1300
     49 H49        -2.6337    1.9909   54.0713 H       1  ZINC000450219577    0.1300
@<TRIPOS>BOND
     1     1     2    1
     2     1    28    1
     3     1    29    1
     4     1    30    1
     5     2     3    1
     6     2     4    1
     7     2     5    1
     8     3    31    1
     9     3    32    1
    10     3    33    1
    11     4    34    1
    12     4    35    1
    13     4    36    1
    14     5     6    1
    15     6     7    2
    16     6     8    1
    17     8     9    1
    18     8    10    1
    19     8    22    1
    20    10    11   am
    21    10    37    1
    22    11    12    2
    23    11    13    1
    24    13    21   ar
    25    13    14   ar
    26    14    15   ar
    27    14    38    1
    28    15    16   ar
    29    16    17    1
    30    16    20   ar
    31    17    19    1
    32    17    18    1
    33    17    39    1
    34    18    19    1
    35    18    40    1
    36    18    41    1
    37    19    42    1
    38    19    43    1
    39    20    21   ar
    40    21    44    1
    41    22    27   ar
    42    22    23   ar
    43    23    24   ar
    44    23    45    1
    45    24    25   ar
    46    24    46    1
    47    25    26   ar
    48    25    47    1
    49    26    27   ar
    50    26    48    1
    51    27    49    1
@<TRIPOS>SUBSTRUCTURE
     1 ZINC000450219577        1 TEMP              0 ****  ****    0 ROOT


##########                                Name:    ZINC000494558165
##########                DOCK_Rotatable_Bonds:                  11
##########                         Heavy_Atoms:                  28
##########                    Molecular_Weight:             409.506
##########                DOCK_Rotatable_Bonds:                  11
##########                       Formal_Charge:        -6.55651e-07
##########                     HBond_Acceptors:                   9
##########                        HBond_Donors:                   3
##########                         Heavy_Atoms:                  28
##########                          Grid_Score:          -29.722263
##########                     Grid_vdw_energy:          -28.668253
##########                      Grid_es_energy:           -1.054010
##########           Internal_energy_repulsive:           33.083221

@<TRIPOS>MOLECULE
ZINC000494558165
 55 57 1 0 0
SMALL
USER_CHARGES


@<TRIPOS>ATOM
      1 O1        -13.9187   -1.4579   57.0367 O.2     1  ZINC000494558165   -0.4400
      2 C2        -12.9042   -1.4530   56.3730 C.2     1  ZINC000494558165    0.5100
      3 C3        -12.9825   -1.6054   54.8757 C.3     1  ZINC000494558165    0.0300
      4 N4        -12.6125   -2.9773   54.5032 N.3     1  ZINC000494558165   -0.5000
      5 C5        -13.6696   -3.9271   54.8750 C.3     1  ZINC000494558165    0.0500
      6 C6        -13.1142   -4.9422   55.8761 C.3     1  ZINC000494558165   -0.1100
      7 C7        -14.2408   -5.4234   56.7925 C.3     1  ZINC000494558165    0.0800
      8 O8        -14.7202   -4.3273   57.5739 O.3     1  ZINC000494558165   -0.5700
      9 C9        -12.3031   -3.0683   53.0699 C.3     1  ZINC000494558165    0.1200
     10 H10       -12.7060   -3.9921   52.6547 H       1  ZINC000494558165    0.1000
     11 C11       -10.7775   -3.0010   52.8460 C.3     1  ZINC000494558165   -0.1200
     12 C12       -10.5422   -1.4927   52.6182 C.3     1  ZINC000494558165   -0.0900
     13 C13       -11.8526   -0.9650   52.0748 C.ar    1  ZINC000494558165   -0.0900
     14 C14       -12.1373    0.2138   51.4067 C.ar    1  ZINC000494558165   -0.1100
     15 C15       -13.4286    0.4875   50.9991 C.ar    1  ZINC000494558165   -0.1100
     16 C16       -14.4402   -0.4177   51.2585 C.ar    1  ZINC000494558165   -0.1200
     17 C17       -14.1582   -1.5944   51.9250 C.ar    1  ZINC000494558165   -0.1000
     18 C18       -12.8670   -1.8718   52.3340 C.ar    1  ZINC000494558165   -0.1300
     19 N19       -11.7067   -1.3056   56.9736 N.am    1  ZINC000494558165   -0.6900
     20 C20       -11.6367   -1.1694   58.3127 C.2     1  ZINC000494558165    0.7000
     21 O21       -12.6534   -1.1777   58.9784 O.2     1  ZINC000494558165   -0.5200
     22 N22       -10.4390   -1.0236   58.9135 N.am    1  ZINC000494558165   -0.7300
     23 C23       -10.3628   -0.8772   60.3692 C.3     1  ZINC000494558165    0.1700
     24 H24       -10.8235   -1.7408   60.8489 H       1  ZINC000494558165    0.1200
     25 C25        -8.8900   -0.7696   60.8019 C.3     1  ZINC000494558165   -0.1400
     26 C26        -8.8947   -0.2897   62.2762 C.3     1  ZINC000494558165   -0.5800
     27 S27       -10.1901    1.0070   62.2693 S.o2    1  ZINC000494558165    2.4000
     28 O28       -11.0083    0.8613   63.4219 O.2     1  ZINC000494558165   -0.9300
     29 O29        -9.5962    2.2644   61.9773 O.2     1  ZINC000494558165   -0.9300
     30 C30       -11.0969    0.4081   60.8000 C.3     1  ZINC000494558165   -0.6200
     31 H31       -13.9998   -1.4001   54.5423 H       1  ZINC000494558165    0.0700
     32 H32       -12.2964   -0.9028   54.4027 H       1  ZINC000494558165    0.1200
     33 H33       -14.5005   -3.3868   55.3285 H       1  ZINC000494558165    0.0900
     34 H34       -14.0187   -4.4492   53.9841 H       1  ZINC000494558165    0.0400
     35 H35       -12.6959   -5.7924   55.3372 H       1  ZINC000494558165    0.0700
     36 H36       -12.3342   -4.4722   56.4751 H       1  ZINC000494558165    0.0800
     37 H37       -15.0554   -5.8225   56.1881 H       1  ZINC000494558165    0.0500
     38 H38       -13.8631   -6.2033   57.4538 H       1  ZINC000494558165    0.0400
     39 H39       -15.6006   -4.4669   57.9490 H       1  ZINC000494558165    0.3800
     40 H40       -10.2406   -3.3478   53.7289 H       1  ZINC000494558165    0.0900
     41 H41       -10.4895   -3.5754   51.9655 H       1  ZINC000494558165    0.0800
     42 H42       -10.2981   -1.0015   53.5601 H       1  ZINC000494558165    0.0800
     43 H43        -9.7430   -1.3399   51.8929 H       1  ZINC000494558165    0.0800
     44 H44       -11.3474    0.9218   51.2038 H       1  ZINC000494558165    0.1200
     45 H45       -13.6472    1.4078   50.4778 H       1  ZINC000494558165    0.1300
     46 H46       -15.4504   -0.2051   50.9409 H       1  ZINC000494558165    0.1200
     47 H47       -14.9493   -2.3011   52.1278 H       1  ZINC000494558165    0.1200
     48 H48       -10.8952   -1.2977   56.4423 H       1  ZINC000494558165    0.4100
     49 H49        -9.6276   -1.0157   58.3821 H       1  ZINC000494558165    0.4000
     50 H50        -8.4070   -1.7441   60.7280 H       1  ZINC000494558165    0.1100
     51 H51        -8.3688   -0.0458   60.1753 H       1  ZINC000494558165    0.0900
     52 H52        -9.1664   -1.1045   62.9474 H       1  ZINC000494558165    0.1400
     53 H53        -7.9271    0.1315   62.5490 H       1  ZINC000494558165    0.1400
     54 H54       -11.0604    1.1515   60.0038 H       1  ZINC000494558165    0.1500
     55 H55       -12.1307    0.1810   61.0600 H       1  ZINC000494558165    0.1500
@<TRIPOS>BOND
     1     1     2    2
     2     2     3    1
     3     2    19   am
     4     3     4    1
     5     3    31    1
     6     3    32    1
     7     4     5    1
     8     4     9    1
     9     5     6    1
    10     5    33    1
    11     5    34    1
    12     6     7    1
    13     6    35    1
    14     6    36    1
    15     7     8    1
    16     7    37    1
    17     7    38    1
    18     8    39    1
    19     9    10    1
    20     9    18    1
    21     9    11    1
    22    11    12    1
    23    11    40    1
    24    11    41    1
    25    12    13    1
    26    12    42    1
    27    12    43    1
    28    13    18   ar
    29    13    14   ar
    30    14    15   ar
    31    14    44    1
    32    15    16   ar
    33    15    45    1
    34    16    17   ar
    35    16    46    1
    36    17    18   ar
    37    17    47    1
    38    19    20   am
    39    19    48    1
    40    20    21    2
    41    20    22   am
    42    22    23    1
    43    22    49    1
    44    23    24    1
    45    23    30    1
    46    23    25    1
    47    25    26    1
    48    25    50    1
    49    25    51    1
    50    26    27    1
    51    26    52    1
    52    26    53    1
    53    27    28    2
    54    27    29    2
    55    27    30    1
    56    30    54    1
    57    30    55    1
@<TRIPOS>SUBSTRUCTURE
     1 ZINC000494558165        1 TEMP              0 ****  ****    0 ROOT


##########                                Name:    ZINC000572257265
##########                DOCK_Rotatable_Bonds:                  11
##########                         Heavy_Atoms:                  24
##########                    Molecular_Weight:             393.509
##########                DOCK_Rotatable_Bonds:                  11
##########                       Formal_Charge:          -0.0100002
##########                     HBond_Acceptors:                  11
##########                        HBond_Donors:                   3
##########                         Heavy_Atoms:                  24
##########                          Grid_Score:          -29.698734
##########                     Grid_vdw_energy:          -29.387373
##########                      Grid_es_energy:           -0.311361
##########           Internal_energy_repulsive:            8.716990

@<TRIPOS>MOLECULE
ZINC000572257265
 43 43 1 0 0
SMALL
USER_CHARGES


@<TRIPOS>ATOM
      1 C1          4.2995   -0.9166   43.4074 C.3     1  ZINC000572257265   -0.1300
      2 S2          3.9539    0.4671   44.5284 S.3     1  ZINC000572257265   -0.2200
      3 C3          3.3310   -0.3602   46.0178 C.3     1  ZINC000572257265   -0.1300
      4 C4          3.0406    0.6841   47.0976 C.3     1  ZINC000572257265    0.1500
      5 C5          2.6064   -0.0201   48.3846 C.3     1  ZINC000572257265   -0.1500
      6 O6          4.2205    1.4502   47.3486 O.3     1  ZINC000572257265   -0.5400
      7 C7          1.9214    1.6124   46.6215 C.3     1  ZINC000572257265    0.0900
      8 N8          0.7239    0.8220   46.3263 N.am    1  ZINC000572257265   -1.1100
      9 S9         -0.7708    1.5335   46.3757 S.o2    1  ZINC000572257265    2.6900
     10 O10        -0.7011    2.6726   45.5290 O.2     1  ZINC000572257265   -0.9400
     11 O11        -1.7181    0.4894   46.1976 O.2     1  ZINC000572257265   -0.9500
     12 C12        -1.0041    2.1433   48.0122 C.ar    1  ZINC000572257265   -0.6300
     13 C13        -0.9527    3.5028   48.2572 C.ar    1  ZINC000572257265   -0.0400
     14 C14        -1.1357    3.9813   49.5411 C.ar    1  ZINC000572257265   -0.0400
     15 C15        -1.3706    3.1001   50.5801 C.ar    1  ZINC000572257265   -0.6300
     16 S16        -1.6033    3.7100   52.2167 S.o2    1  ZINC000572257265    2.7000
     17 O17        -0.3678    3.5237   52.8937 O.2     1  ZINC000572257265   -0.9400
     18 O18        -2.2353    4.9761   52.0871 O.2     1  ZINC000572257265   -0.9400
     19 N19        -2.6983    2.7144   52.9597 N.am    1  ZINC000572257265   -1.1200
     20 C20        -4.0459    2.5643   52.4051 C.3     1  ZINC000572257265    0.2200
     21 C21        -4.9847    3.4089   53.1617 C.1     1  ZINC000572257265    0.1900
     22 N22        -5.7091    4.0606   53.7455 N.1     1  ZINC000572257265   -0.3900
     23 C23        -1.4233    1.7407   50.3350 C.ar    1  ZINC000572257265   -0.0400
     24 C24        -1.2441    1.2626   49.0503 C.ar    1  ZINC000572257265   -0.0400
     25 H25         3.3808   -1.4738   43.2240 H       1  ZINC000572257265    0.0800
     26 H26         4.6856   -0.5318   42.4635 H       1  ZINC000572257265    0.1000
     27 H27         5.0397   -1.5758   43.8611 H       1  ZINC000572257265    0.0800
     28 H28         2.4145   -0.8991   45.7777 H       1  ZINC000572257265    0.0900
     29 H29         4.0802   -1.0624   46.3836 H       1  ZINC000572257265    0.0900
     30 H30         3.4037   -0.6813   48.7237 H       1  ZINC000572257265    0.0800
     31 H31         2.3995    0.7239   49.1539 H       1  ZINC000572257265    0.0700
     32 H32         1.7064   -0.6045   48.1931 H       1  ZINC000572257265    0.0800
     33 H33         4.1084    2.1362   48.0209 H       1  ZINC000572257265    0.3800
     34 H34         1.6945    2.3381   47.4025 H       1  ZINC000572257265    0.0900
     35 H35         2.2422    2.1361   45.7211 H       1  ZINC000572257265    0.0800
     36 H36         0.8063   -0.1181   46.1019 H       1  ZINC000572257265    0.4300
     37 H37        -0.7692    4.1912   47.4454 H       1  ZINC000572257265    0.1500
     38 H38        -1.0947    5.0434   49.7325 H       1  ZINC000572257265    0.1500
     39 H39        -2.4474    2.2306   53.7621 H       1  ZINC000572257265    0.4300
     40 H40        -4.0443    2.8700   51.3589 H       1  ZINC000572257265    0.1100
     41 H41        -4.3550    1.5217   52.4786 H       1  ZINC000572257265    0.1300
     42 H42        -1.6072    1.0525   51.1466 H       1  ZINC000572257265    0.1600
     43 H43        -1.2854    0.2005   48.8588 H       1  ZINC000572257265    0.1500
@<TRIPOS>BOND
     1     1     2    1
     2     1    25    1
     3     1    26    1
     4     1    27    1
     5     2     3    1
     6     3     4    1
     7     3    28    1
     8     3    29    1
     9     4     5    1
    10     4     6    1
    11     4     7    1
    12     5    30    1
    13     5    31    1
    14     5    32    1
    15     6    33    1
    16     7     8    1
    17     7    34    1
    18     7    35    1
    19     8     9   am
    20     8    36    1
    21     9    10    2
    22     9    11    2
    23     9    12    1
    24    12    24   ar
    25    12    13   ar
    26    13    14   ar
    27    13    37    1
    28    14    15   ar
    29    14    38    1
    30    15    16    1
    31    15    23   ar
    32    16    17    2
    33    16    18    2
    34    16    19   am
    35    19    20    1
    36    19    39    1
    37    20    21    1
    38    20    40    1
    39    20    41    1
    40    21    22    3
    41    23    24   ar
    42    23    42    1
    43    24    43    1
@<TRIPOS>SUBSTRUCTURE
     1 ZINC000572257265        1 TEMP              0 ****  ****    0 ROOT


##########                                Name:    ZINC000171059239
##########                DOCK_Rotatable_Bonds:                   8
##########                         Heavy_Atoms:                  25
##########                    Molecular_Weight:              333.39
##########                DOCK_Rotatable_Bonds:                   8
##########                       Formal_Charge:         1.10269e-06
##########                     HBond_Acceptors:                   5
##########                        HBond_Donors:                   4
##########                         Heavy_Atoms:                  25
##########                          Grid_Score:          -29.689722
##########                     Grid_vdw_energy:          -29.537399
##########                      Grid_es_energy:           -0.152323
##########           Internal_energy_repulsive:            6.950287

@<TRIPOS>MOLECULE
ZINC000171059239
 44 46 1 0 0
SMALL
USER_CHARGES


@<TRIPOS>ATOM
      1 N1         -5.9703    0.6589   51.6890 N.am    1  ZINC000171059239   -0.8500
      2 C2         -6.7291   -0.4525   51.7628 C.2     1  ZINC000171059239    0.5600
      3 O3         -6.2176   -1.5474   51.6318 O.2     1  ZINC000171059239   -0.5400
      4 C4         -8.1836   -0.3400   52.0028 C.ar    1  ZINC000171059239   -0.1400
      5 C5         -8.7753    0.9159   52.1453 C.ar    1  ZINC000171059239   -0.0900
      6 C6        -10.1334    1.0140   52.3687 C.ar    1  ZINC000171059239   -0.1200
      7 C7        -10.9080   -0.1292   52.4521 C.ar    1  ZINC000171059239   -0.0800
      8 C8        -10.3274   -1.3776   52.3123 C.ar    1  ZINC000171059239   -0.0900
      9 C9        -11.1790   -2.6174   52.4051 C.3     1  ZINC000171059239   -0.0900
     10 C10       -11.1583   -3.1440   53.8415 C.3     1  ZINC000171059239    0.1400
     11 N11       -11.7228   -2.1340   54.7401 N.am    1  ZINC000171059239   -0.7400
     12 C12       -11.7955   -2.3751   56.0640 C.2     1  ZINC000171059239    0.7000
     13 O13       -11.3913   -3.4304   56.5129 O.2     1  ZINC000171059239   -0.5700
     14 N14       -12.3163   -1.4466   56.8906 N.am    1  ZINC000171059239   -0.6800
     15 C15       -12.3917   -1.6964   58.2622 C.ar    1  ZINC000171059239    0.1700
     16 C16       -13.5905   -2.1725   58.8342 C.ar    1  ZINC000171059239   -0.0600
     17 C17       -14.7299   -2.4061   58.0484 C.ar    1  ZINC000171059239   -0.1100
     18 C18       -15.8698   -2.8660   58.6340 C.ar    1  ZINC000171059239   -0.1100
     19 C19       -15.9237   -3.1089   60.0051 C.ar    1  ZINC000171059239   -0.1200
     20 C20       -14.8385   -2.8937   60.7978 C.ar    1  ZINC000171059239   -0.1000
     21 C21       -13.6440   -2.4195   60.2283 C.ar    1  ZINC000171059239   -0.0400
     22 C22       -12.5040   -2.1867   61.0161 C.ar    1  ZINC000171059239   -0.1200
     23 C23       -11.3601   -1.7275   60.4376 C.ar    1  ZINC000171059239   -0.0900
     24 C24       -11.2941   -1.4858   59.0687 C.ar    1  ZINC000171059239   -0.1200
     25 C25        -8.9719   -1.4893   52.0823 C.ar    1  ZINC000171059239   -0.0500
     26 H26        -5.0158    0.5850   51.5327 H       1  ZINC000171059239    0.4100
     27 H27        -6.3793    1.5328   51.7884 H       1  ZINC000171059239    0.4000
     28 H28        -8.1715    1.8090   52.0811 H       1  ZINC000171059239    0.1300
     29 H29       -10.5925    1.9852   52.4791 H       1  ZINC000171059239    0.1300
     30 H30       -11.9704   -0.0470   52.6275 H       1  ZINC000171059239    0.1300
     31 H31       -12.2035   -2.3767   52.1210 H       1  ZINC000171059239    0.0800
     32 H32       -10.7852   -3.3798   51.7329 H       1  ZINC000171059239    0.0800
     33 H33       -11.7513   -4.0566   53.9024 H       1  ZINC000171059239    0.0700
     34 H34       -10.1307   -3.3580   54.1351 H       1  ZINC000171059239    0.0700
     35 H35       -12.0441   -1.2915   54.3821 H       1  ZINC000171059239    0.4000
     36 H36       -12.6387   -0.6047   56.5325 H       1  ZINC000171059239    0.4100
     37 H37       -14.7026   -2.2216   56.9846 H       1  ZINC000171059239    0.1200
     38 H38       -16.7450   -3.0450   58.0270 H       1  ZINC000171059239    0.1200
     39 H39       -16.8403   -3.4729   60.4452 H       1  ZINC000171059239    0.1200
     40 H40       -14.8949   -3.0859   61.8591 H       1  ZINC000171059239    0.1300
     41 H41       -12.5352   -2.3714   62.0797 H       1  ZINC000171059239    0.1300
     42 H42       -10.4886   -1.5513   61.0507 H       1  ZINC000171059239    0.1300
     43 H43       -10.3746   -1.1220   58.6345 H       1  ZINC000171059239    0.1400
     44 H44        -8.5201   -2.4641   51.9731 H       1  ZINC000171059239    0.1400
@<TRIPOS>BOND
     1     1     2   am
     2     1    26    1
     3     1    27    1
     4     2     3    2
     5     2     4    1
     6     4    25   ar
     7     4     5   ar
     8     5     6   ar
     9     5    28    1
    10     6     7   ar
    11     6    29    1
    12     7     8   ar
    13     7    30    1
    14     8     9    1
    15     8    25   ar
    16     9    10    1
    17     9    31    1
    18     9    32    1
    19    10    11    1
    20    10    33    1
    21    10    34    1
    22    11    12   am
    23    11    35    1
    24    12    13    2
    25    12    14   am
    26    14    15    1
    27    14    36    1
    28    15    24   ar
    29    15    16   ar
    30    16    21   ar
    31    16    17   ar
    32    17    18   ar
    33    17    37    1
    34    18    19   ar
    35    18    38    1
    36    19    20   ar
    37    19    39    1
    38    20    21   ar
    39    20    40    1
    40    21    22   ar
    41    22    23   ar
    42    22    41    1
    43    23    24   ar
    44    23    42    1
    45    24    43    1
    46    25    44    1
@<TRIPOS>SUBSTRUCTURE
     1 ZINC000171059239        1 TEMP              0 ****  ****    0 ROOT


##########                                Name:    ZINC000517001504
##########                DOCK_Rotatable_Bonds:                   5
##########                         Heavy_Atoms:                  29
##########                    Molecular_Weight:             403.401
##########                DOCK_Rotatable_Bonds:                   5
##########                       Formal_Charge:          -0.0200002
##########                     HBond_Acceptors:                   7
##########                        HBond_Donors:                   0
##########                         Heavy_Atoms:                  29
##########                          Grid_Score:          -29.665674
##########                     Grid_vdw_energy:          -29.313498
##########                      Grid_es_energy:           -0.352177
##########           Internal_energy_repulsive:           32.468182

@<TRIPOS>MOLECULE
ZINC000517001504
 49 52 1 0 0
SMALL
USER_CHARGES


@<TRIPOS>ATOM
      1 O1          1.0170    0.8036   49.2993 O.2     1  ZINC000517001504   -0.5200
      2 C2          0.1686    1.5602   48.8768 C.2     1  ZINC000517001504    0.5400
      3 N3         -0.5842    2.2760   49.7356 N.am    1  ZINC000517001504   -0.6100
      4 C4         -1.6154    3.2048   49.2465 C.3     1  ZINC000517001504    0.0600
      5 C5         -1.4098    4.5602   49.9322 C.3     1  ZINC000517001504    0.0500
      6 O6         -1.3488    4.3674   51.3474 O.3     1  ZINC000517001504   -0.3700
      7 C7         -0.2529    3.5582   51.7811 C.3     1  ZINC000517001504    0.1200
      8 H8          0.6834    4.0006   51.4407 H       1  ZINC000517001504    0.0800
      9 C9         -0.2528    3.4757   53.2859 C.ar    1  ZINC000517001504   -0.0600
     10 C10         0.9433    3.3864   53.9732 C.ar    1  ZINC000517001504   -0.0900
     11 C11         0.9433    3.3107   55.3534 C.ar    1  ZINC000517001504   -0.0700
     12 C12        -0.2527    3.3248   56.0464 C.ar    1  ZINC000517001504   -0.1800
     13 C13        -0.2527    3.2417   57.5512 C.3     1  ZINC000517001504    0.5100
     14 F14        -0.9920    4.3067   58.0769 F       1  ZINC000517001504   -0.1800
     15 F15        -0.8289    2.0314   57.9514 F       1  ZINC000517001504   -0.1800
     16 F16         1.0630    3.3101   58.0219 F       1  ZINC000517001504   -0.1800
     17 C17        -1.4487    3.4154   55.3593 C.ar    1  ZINC000517001504   -0.0700
     18 C18        -1.4486    3.4950   53.9792 C.ar    1  ZINC000517001504   -0.1000
     19 C19        -0.4032    2.1472   51.1902 C.3     1  ZINC000517001504    0.0900
     20 C20        -0.0398    1.7047   47.3913 C.3     1  ZINC000517001504   -0.0600
     21 C21         0.3714    3.0578   46.8707 C.ar    1  ZINC000517001504   -0.0700
     22 C22        -0.0201    3.4605   45.6076 C.ar    1  ZINC000517001504   -0.1200
     23 C23         0.3570    4.7018   45.1301 C.ar    1  ZINC000517001504   -0.1100
     24 C24         1.1253    5.5405   45.9158 C.ar    1  ZINC000517001504   -0.1100
     25 C25         1.5159    5.1380   47.1793 C.ar    1  ZINC000517001504   -0.1100
     26 C26         1.1352    3.8986   47.6584 C.ar    1  ZINC000517001504   -0.1000
     27 C27         0.5207    0.5294   46.5721 C.3     1  ZINC000517001504   -0.1600
     28 C28        -0.8366   -0.1239   46.7416 C.2     1  ZINC000517001504    0.3600
     29 O29        -1.2590   -1.2551   46.7384 O.2     1  ZINC000517001504   -0.4100
     30 C30        -1.4336    1.2583   46.9171 C.3     1  ZINC000517001504   -0.1900
     31 H31        -1.5219    3.3215   48.1668 H       1  ZINC000517001504    0.1000
     32 H32        -2.6044    2.8164   49.4899 H       1  ZINC000517001504    0.0800
     33 H33        -0.4777    5.0061   49.5850 H       1  ZINC000517001504    0.0600
     34 H34        -2.2424    5.2207   49.6902 H       1  ZINC000517001504    0.1100
     35 H35         1.8776    3.3754   53.4317 H       1  ZINC000517001504    0.1400
     36 H36         1.8778    3.2402   55.8903 H       1  ZINC000517001504    0.1400
     37 H37        -2.3831    3.4268   55.9008 H       1  ZINC000517001504    0.1400
     38 H38        -2.3831    3.5659   53.4424 H       1  ZINC000517001504    0.1400
     39 H39        -1.2698    1.6549   51.6314 H       1  ZINC000517001504    0.0800
     40 H40         0.4950    1.5652   51.3968 H       1  ZINC000517001504    0.1100
     41 H41        -0.6203    2.8053   44.9937 H       1  ZINC000517001504    0.1300
     42 H42         0.0518    5.0162   44.1429 H       1  ZINC000517001504    0.1300
     43 H43         1.4205    6.5098   45.5425 H       1  ZINC000517001504    0.1300
     44 H44         2.1164    5.7931   47.7931 H       1  ZINC000517001504    0.1300
     45 H45         1.4404    3.5842   48.6456 H       1  ZINC000517001504    0.1200
     46 H46         0.7558    0.7883   45.5397 H       1  ZINC000517001504    0.1300
     47 H47         1.3290   -0.0054   47.0708 H       1  ZINC000517001504    0.1100
     48 H48        -2.1971    1.3097   47.6934 H       1  ZINC000517001504    0.1000
     49 H49        -1.7468    1.7217   45.9816 H       1  ZINC000517001504    0.1400
@<TRIPOS>BOND
     1     1     2    2
     2     2     3   am
     3     2    20    1
     4     3    19    1
     5     3     4    1
     6     4     5    1
     7     4    31    1
     8     4    32    1
     9     5     6    1
    10     5    33    1
    11     5    34    1
    12     6     7    1
    13     7     8    1
    14     7     9    1
    15     7    19    1
    16     9    18   ar
    17     9    10   ar
    18    10    11   ar
    19    10    35    1
    20    11    12   ar
    21    11    36    1
    22    12    13    1
    23    12    17   ar
    24    13    14    1
    25    13    15    1
    26    13    16    1
    27    17    18   ar
    28    17    37    1
    29    18    38    1
    30    19    39    1
    31    19    40    1
    32    20    30    1
    33    20    21    1
    34    20    27    1
    35    21    26   ar
    36    21    22   ar
    37    22    23   ar
    38    22    41    1
    39    23    24   ar
    40    23    42    1
    41    24    25   ar
    42    24    43    1
    43    25    26   ar
    44    25    44    1
    45    26    45    1
    46    27    28    1
    47    27    46    1
    48    27    47    1
    49    28    29    2
    50    28    30    1
    51    30    48    1
    52    30    49    1
@<TRIPOS>SUBSTRUCTURE
     1 ZINC000517001504        1 TEMP              0 ****  ****    0 ROOT


##########                                Name:    ZINC000123469372
##########                DOCK_Rotatable_Bonds:                   7
##########                         Heavy_Atoms:                  25
##########                    Molecular_Weight:             341.382
##########                DOCK_Rotatable_Bonds:                   7
##########                       Formal_Charge:          -0.0300001
##########                     HBond_Acceptors:                   5
##########                        HBond_Donors:                   2
##########                         Heavy_Atoms:                  25
##########                          Grid_Score:          -29.652025
##########                     Grid_vdw_energy:          -30.310204
##########                      Grid_es_energy:            0.658179
##########           Internal_energy_repulsive:           12.077085

@<TRIPOS>MOLECULE
ZINC000123469372
 45 47 1 0 0
SMALL
USER_CHARGES


@<TRIPOS>ATOM
      1 C1        -11.2526   -2.7073   52.0719 C.3     1  ZINC000123469372   -0.1700
      2 C2        -10.9016   -1.4799   52.9153 C.3     1  ZINC000123469372    0.1500
      3 H3        -11.5280   -0.6405   52.6135 H       1  ZINC000123469372    0.0900
      4 C4        -11.1431   -1.7909   54.3937 C.3     1  ZINC000123469372   -0.1600
      5 C5        -12.6313   -1.6328   54.7116 C.3     1  ZINC000123469372    0.1500
      6 H6        -13.2025   -1.6275   53.7833 H       1  ZINC000123469372    0.1100
      7 O7        -12.8418   -0.4025   55.4073 O.3     1  ZINC000123469372   -0.5500
      8 C8        -13.0856   -2.7818   55.5744 C.ar    1  ZINC000123469372   -0.1200
      9 C9        -12.8385   -4.0831   55.1788 C.ar    1  ZINC000123469372   -0.1100
     10 C10       -13.2551   -5.1371   55.9703 C.ar    1  ZINC000123469372   -0.1200
     11 C11       -13.9185   -4.8898   57.1576 C.ar    1  ZINC000123469372   -0.1200
     12 C12       -14.1648   -3.5885   57.5537 C.ar    1  ZINC000123469372   -0.1200
     13 C13       -13.7443   -2.5344   56.7643 C.ar    1  ZINC000123469372   -0.1100
     14 N14        -9.4922   -1.1351   52.7127 N.am    1  ZINC000123469372   -0.7100
     15 C15        -9.1029    0.1548   52.7440 C.2     1  ZINC000123469372    0.5700
     16 O16        -9.9224    1.0334   52.9391 O.2     1  ZINC000123469372   -0.5400
     17 C17        -7.6957    0.4989   52.5435 C.2     1  ZINC000123469372   -0.2200
     18 C18        -7.2703    1.7705   52.7448 C.2     1  ZINC000123469372    0.0000
     19 C19        -5.8483    2.0656   52.5092 C.ar    1  ZINC000123469372   -0.1200
     20 C20        -5.2563    3.2299   52.9964 C.ar    1  ZINC000123469372   -0.0900
     21 C21        -3.9172    3.4664   52.7506 C.ar    1  ZINC000123469372    0.0700
     22 F22        -3.3360    4.5922   53.2196 F       1  ZINC000123469372   -0.1400
     23 C23        -3.1668    2.5528   52.0250 C.ar    1  ZINC000123469372   -0.1100
     24 C24        -3.7459    1.3954   51.5376 C.ar    1  ZINC000123469372   -0.1200
     25 C25        -5.0846    1.1420   51.7742 C.ar    1  ZINC000123469372    0.1300
     26 O26        -5.6814    0.0165   51.3091 O.3     1  ZINC000123469372   -0.3000
     27 C27        -6.7112   -0.5593   52.1184 C.3     1  ZINC000123469372    0.1100
     28 H28       -12.3012   -2.9639   52.2227 H       1  ZINC000123469372    0.0700
     29 H29       -11.0805   -2.4857   51.0187 H       1  ZINC000123469372    0.0600
     30 H30       -10.6262   -3.5467   52.3737 H       1  ZINC000123469372    0.0600
     31 H31       -10.8331   -2.8142   54.6052 H       1  ZINC000123469372    0.0900
     32 H32       -10.5649   -1.1017   55.0092 H       1  ZINC000123469372    0.0800
     33 H33       -12.9391    0.3655   54.8277 H       1  ZINC000123469372    0.3700
     34 H34       -12.3202   -4.2763   54.2512 H       1  ZINC000123469372    0.1200
     35 H35       -13.0627   -6.1538   55.6608 H       1  ZINC000123469372    0.1200
     36 H36       -14.2447   -5.7132   57.7756 H       1  ZINC000123469372    0.1200
     37 H37       -14.6833   -3.3953   58.4812 H       1  ZINC000123469372    0.1200
     38 H38       -13.9367   -1.5177   57.0737 H       1  ZINC000123469372    0.1200
     39 H39        -8.8393   -1.8351   52.5560 H       1  ZINC000123469372    0.4000
     40 H40        -7.9535    2.5422   53.0675 H       1  ZINC000123469372    0.1500
     41 H41        -5.8399    3.9418   53.5612 H       1  ZINC000123469372    0.1500
     42 H42        -2.1210    2.7473   51.8386 H       1  ZINC000123469372    0.1500
     43 H43        -3.1536    0.6905   50.9732 H       1  ZINC000123469372    0.1500
     44 H44        -6.2629   -1.0183   52.9995 H       1  ZINC000123469372    0.0800
     45 H45        -7.2351   -1.3239   51.5447 H       1  ZINC000123469372    0.1100
@<TRIPOS>BOND
     1     1     2    1
     2     1    28    1
     3     1    29    1
     4     1    30    1
     5     2     3    1
     6     2     4    1
     7     2    14    1
     8     4     5    1
     9     4    31    1
    10     4    32    1
    11     5     6    1
    12     5     7    1
    13     5     8    1
    14     7    33    1
    15     8    13   ar
    16     8     9   ar
    17     9    10   ar
    18     9    34    1
    19    10    11   ar
    20    10    35    1
    21    11    12   ar
    22    11    36    1
    23    12    13   ar
    24    12    37    1
    25    13    38    1
    26    14    15   am
    27    14    39    1
    28    15    16    2
    29    15    17    1
    30    17    27    1
    31    17    18    2
    32    18    19    1
    33    18    40    1
    34    19    25   ar
    35    19    20   ar
    36    20    21   ar
    37    20    41    1
    38    21    22    1
    39    21    23   ar
    40    23    24   ar
    41    23    42    1
    42    24    25   ar
    43    24    43    1
    44    25    26    1
    45    26    27    1
    46    27    44    1
    47    27    45    1
@<TRIPOS>SUBSTRUCTURE
     1 ZINC000123469372        1 TEMP              0 ****  ****    0 ROOT


##########                                Name:    ZINC000848949366
##########                DOCK_Rotatable_Bonds:                   8
##########                         Heavy_Atoms:                  25
##########                    Molecular_Weight:             368.773
##########                DOCK_Rotatable_Bonds:                   8
##########                       Formal_Charge:          0.00999947
##########                     HBond_Acceptors:                   9
##########                        HBond_Donors:                   3
##########                         Heavy_Atoms:                  25
##########                          Grid_Score:          -29.632954
##########                     Grid_vdw_energy:          -28.978378
##########                      Grid_es_energy:           -0.654575
##########           Internal_energy_repulsive:            9.558187

@<TRIPOS>MOLECULE
ZINC000848949366
 42 43 1 0 0
SMALL
USER_CHARGES


@<TRIPOS>ATOM
      1 C1         -4.1867    5.1083   55.2328 C.3     1  ZINC000848949366   -0.1500
      2 C2         -5.6601    4.7900   55.4956 C.3     1  ZINC000848949366    0.0600
      3 O3         -5.9754    3.5084   54.9479 O.3     1  ZINC000848949366   -0.3500
      4 C4         -6.2589    3.4586   53.6294 C.2     1  ZINC000848949366    0.5400
      5 O5         -6.4900    4.4848   53.0177 O.2     1  ZINC000848949366   -0.4800
      6 C6         -6.2874    2.2136   52.9586 C.2     1  ZINC000848949366   -0.2300
      7 C7         -5.1754    1.7027   52.3876 C.2     1  ZINC000848949366    0.2000
      8 C8         -3.8816    2.4714   52.4662 C.3     1  ZINC000848949366    0.1000
      9 O9         -2.9154    1.8877   51.5530 O.3     1  ZINC000848949366   -0.3500
     10 C10        -1.6592    2.3734   51.5989 C.2     1  ZINC000848949366    0.5100
     11 O11        -1.3886    3.2885   52.3513 O.2     1  ZINC000848949366   -0.4800
     12 C12        -0.6138    1.7949   50.7367 C.ar    1  ZINC000848949366   -0.1600
     13 C13         0.5809    1.3318   51.2951 C.ar    1  ZINC000848949366   -0.0300
     14 C14         1.5545    0.7921   50.4839 C.ar    1  ZINC000848949366   -0.1300
     15 C15         1.3553    0.7060   49.1142 C.ar    1  ZINC000848949366    0.0200
     16 Cl16        2.5910    0.0240   48.1035 Cl      1  ZINC000848949366   -0.0500
     17 C17         0.1781    1.1599   48.5491 C.ar    1  ZINC000848949366   -0.1500
     18 C18        -0.8144    1.7006   49.3516 C.ar    1  ZINC000848949366    0.1900
     19 O19        -1.9699    2.1464   48.7986 O.3     1  ZINC000848949366   -0.4700
     20 N20        -5.2041    0.5004   51.7406 N.am    1  ZINC000848949366   -0.6400
     21 C21        -6.3051   -0.2520   51.6204 C.2     1  ZINC000848949366    0.7100
     22 O22        -6.2324   -1.3096   51.0255 O.2     1  ZINC000848949366   -0.5600
     23 N23        -7.4912    0.1248   52.1377 N.am    1  ZINC000848949366   -0.7100
     24 C24        -7.5651    1.4051   52.8615 C.3     1  ZINC000848949366    0.2000
     25 H25        -7.9187    1.1998   53.8719 H       1  ZINC000848949366    0.0900
     26 C26        -8.6124    2.2789   52.1684 C.3     1  ZINC000848949366   -0.1700
     27 H27        -3.9461    6.0859   55.6506 H       1  ZINC000848949366    0.0800
     28 H28        -3.5616    4.3486   55.7021 H       1  ZINC000848949366    0.0700
     29 H29        -4.0031    5.1172   54.1584 H       1  ZINC000848949366    0.0700
     30 H30        -5.8437    4.7811   56.5700 H       1  ZINC000848949366    0.0700
     31 H31        -6.2852    5.5496   55.0264 H       1  ZINC000848949366    0.0700
     32 H32        -4.0594    3.5111   52.1912 H       1  ZINC000848949366    0.1100
     33 H33        -3.4933    2.4261   53.4837 H       1  ZINC000848949366    0.1000
     34 H34         0.7406    1.3975   52.3612 H       1  ZINC000848949366    0.1500
     35 H35         2.4773    0.4346   50.9164 H       1  ZINC000848949366    0.1500
     36 H36         0.0300    1.0897   47.4816 H       1  ZINC000848949366    0.1500
     37 H37        -2.0390    1.9846   47.8477 H       1  ZINC000848949366    0.4000
     38 H38        -4.3807    0.1732   51.3458 H       1  ZINC000848949366    0.4300
     39 H39        -8.2766   -0.4357   52.0385 H       1  ZINC000848949366    0.4400
     40 H40        -9.5791    1.7759   52.1926 H       1  ZINC000848949366    0.0700
     41 H41        -8.6874    3.2355   52.6857 H       1  ZINC000848949366    0.0700
     42 H42        -8.3167    2.4481   51.1329 H       1  ZINC000848949366    0.0700
@<TRIPOS>BOND
     1     1     2    1
     2     1    27    1
     3     1    28    1
     4     1    29    1
     5     2     3    1
     6     2    30    1
     7     2    31    1
     8     3     4    1
     9     4     5    2
    10     4     6    1
    11     6    24    1
    12     6     7    2
    13     7     8    1
    14     7    20    1
    15     8     9    1
    16     8    32    1
    17     8    33    1
    18     9    10    1
    19    10    11    2
    20    10    12    1
    21    12    18   ar
    22    12    13   ar
    23    13    14   ar
    24    13    34    1
    25    14    15   ar
    26    14    35    1
    27    15    16    1
    28    15    17   ar
    29    17    18   ar
    30    17    36    1
    31    18    19    1
    32    19    37    1
    33    20    21   am
    34    20    38    1
    35    21    22    2
    36    21    23   am
    37    23    24    1
    38    23    39    1
    39    24    25    1
    40    24    26    1
    41    26    40    1
    42    26    41    1
    43    26    42    1
@<TRIPOS>SUBSTRUCTURE
     1 ZINC000848949366        1 TEMP              0 ****  ****    0 ROOT


##########                                Name:    ZINC000129637895
##########                DOCK_Rotatable_Bonds:                   7
##########                         Heavy_Atoms:                  26
##########                    Molecular_Weight:             374.464
##########                DOCK_Rotatable_Bonds:                   7
##########                       Formal_Charge:        -5.51343e-07
##########                     HBond_Acceptors:                   8
##########                        HBond_Donors:                   1
##########                         Heavy_Atoms:                  26
##########                          Grid_Score:          -29.628319
##########                     Grid_vdw_energy:          -28.863588
##########                      Grid_es_energy:           -0.764731
##########           Internal_energy_repulsive:           17.840836

@<TRIPOS>MOLECULE
ZINC000129637895
 48 50 1 0 0
SMALL
USER_CHARGES


@<TRIPOS>ATOM
      1 C1        -16.8547   -2.1970   58.7238 C.3     1  ZINC000129637895   -0.1500
      2 C2        -15.9082   -3.3647   59.0098 C.3     1  ZINC000129637895   -0.0500
      3 C3        -14.6314   -2.8399   59.6142 C.2     1  ZINC000129637895    0.0300
      4 C4        -13.5706   -2.4720   58.8734 C.2     1  ZINC000129637895   -0.0200
      5 N5        -13.4859   -2.5153   57.4824 N.am    1  ZINC000129637895   -0.5900
      6 C6        -13.2720   -3.6897   56.8565 C.2     1  ZINC000129637895    0.5000
      7 O7        -13.1545   -4.7100   57.5040 O.2     1  ZINC000129637895   -0.4800
      8 C8        -13.1795   -3.7357   55.3676 C.2     1  ZINC000129637895    0.5200
      9 O9        -14.1052   -4.1723   54.7152 O.2     1  ZINC000129637895   -0.5100
     10 N10       -12.0680   -3.2925   54.7474 N.am    1  ZINC000129637895   -0.5800
     11 C11       -11.9586   -3.3231   53.2810 C.3     1  ZINC000129637895    0.0800
     12 C12       -11.5330   -1.9335   52.7954 C.3     1  ZINC000129637895    0.0400
     13 N13       -10.3111   -1.5247   53.5011 N.3     1  ZINC000129637895   -0.4900
     14 C14        -9.8003   -0.3378   52.9708 C.ar    1  ZINC000129637895    0.1500
     15 C15       -10.6035    0.7935   52.8969 C.ar    1  ZINC000129637895   -0.2100
     16 C16       -10.0978    1.9675   52.3728 C.ar    1  ZINC000129637895   -0.0500
     17 C17        -8.7931    2.0199   51.9207 C.ar    1  ZINC000129637895   -0.2300
     18 C18        -7.9860    0.8928   51.9921 C.ar    1  ZINC000129637895    0.1500
     19 O19        -6.7029    0.9462   51.5474 O.3     1  ZINC000129637895   -0.3200
     20 C20        -5.9321   -0.2531   51.6446 C.3     1  ZINC000129637895    0.0300
     21 C21        -8.4875   -0.2852   52.5222 C.ar    1  ZINC000129637895   -0.1700
     22 C22       -10.5471   -1.3974   54.9453 C.3     1  ZINC000129637895    0.0400
     23 C23       -10.9347   -2.7595   55.5187 C.3     1  ZINC000129637895    0.1100
     24 S24       -12.3076   -1.9247   59.9733 S.3     1  ZINC000129637895    0.2400
     25 C25       -13.3222   -2.2418   61.3120 C.2     1  ZINC000129637895   -0.0300
     26 N26       -14.4611   -2.6971   60.9132 N.2     1  ZINC000129637895   -0.4500
     27 H27       -17.0804   -1.6760   59.6543 H       1  ZINC000129637895    0.0600
     28 H28       -16.3798   -1.5067   58.0268 H       1  ZINC000129637895    0.0500
     29 H29       -17.7782   -2.5767   58.2866 H       1  ZINC000129637895    0.0700
     30 H30       -16.3832   -4.0551   59.7068 H       1  ZINC000129637895    0.0900
     31 H31       -15.6824   -3.8857   58.0794 H       1  ZINC000129637895    0.0700
     32 H32       -13.5810   -1.7004   56.9651 H       1  ZINC000129637895    0.4300
     33 H33       -11.2112   -4.0592   52.9849 H       1  ZINC000129637895    0.0900
     34 H34       -12.9243   -3.5828   52.8471 H       1  ZINC000129637895    0.1400
     35 H35       -11.3401   -1.9662   51.7231 H       1  ZINC000129637895    0.1000
     36 H36       -12.3284   -1.2171   53.0005 H       1  ZINC000129637895    0.0500
     37 H37       -11.6237    0.7550   53.2489 H       1  ZINC000129637895    0.1300
     38 H38       -10.7235    2.8459   52.3161 H       1  ZINC000129637895    0.1300
     39 H39        -8.4010    2.9389   51.5109 H       1  ZINC000129637895    0.1300
     40 H40        -5.8677   -0.5600   52.6885 H       1  ZINC000129637895    0.0600
     41 H41        -6.4110   -1.0409   51.0631 H       1  ZINC000129637895    0.0600
     42 H42        -4.9297   -0.0732   51.2563 H       1  ZINC000129637895    0.1000
     43 H43        -7.8609   -1.1630   52.5788 H       1  ZINC000129637895    0.1300
     44 H44        -9.6393   -1.0413   55.4322 H       1  ZINC000129637895    0.1000
     45 H45       -11.3563   -0.6885   55.1206 H       1  ZINC000129637895    0.0500
     46 H46       -11.2215   -2.6483   56.5644 H       1  ZINC000129637895    0.1100
     47 H47       -10.0906   -3.4443   55.4384 H       1  ZINC000129637895    0.0900
     48 H48       -13.0500   -2.0799   62.3446 H       1  ZINC000129637895    0.2000
@<TRIPOS>BOND
     1     1     2    1
     2     1    27    1
     3     1    28    1
     4     1    29    1
     5     2     3    1
     6     2    30    1
     7     2    31    1
     8     3    26    1
     9     3     4    2
    10     4     5    1
    11     4    24    1
    12     5     6   am
    13     5    32    1
    14     6     7    2
    15     6     8    1
    16     8     9    2
    17     8    10   am
    18    10    23    1
    19    10    11    1
    20    11    12    1
    21    11    33    1
    22    11    34    1
    23    12    13    1
    24    12    35    1
    25    12    36    1
    26    13    14    1
    27    13    22    1
    28    14    21   ar
    29    14    15   ar
    30    15    16   ar
    31    15    37    1
    32    16    17   ar
    33    16    38    1
    34    17    18   ar
    35    17    39    1
    36    18    19    1
    37    18    21   ar
    38    19    20    1
    39    20    40    1
    40    20    41    1
    41    20    42    1
    42    21    43    1
    43    22    23    1
    44    22    44    1
    45    22    45    1
    46    23    46    1
    47    23    47    1
    48    24    25    1
    49    25    26    2
    50    25    48    1
@<TRIPOS>SUBSTRUCTURE
     1 ZINC000129637895        1 TEMP              0 ****  ****    0 ROOT


##########                                Name:    ZINC000298969660
##########                DOCK_Rotatable_Bonds:                  10
##########                         Heavy_Atoms:                  29
##########                    Molecular_Weight:             397.474
##########                DOCK_Rotatable_Bonds:                  10
##########                       Formal_Charge:          -0.0100008
##########                     HBond_Acceptors:                   7
##########                        HBond_Donors:                   2
##########                         Heavy_Atoms:                  29
##########                          Grid_Score:          -29.611851
##########                     Grid_vdw_energy:          -29.272036
##########                      Grid_es_energy:           -0.339814
##########           Internal_energy_repulsive:           16.867140

@<TRIPOS>MOLECULE
ZINC000298969660
 56 58 1 0 0
SMALL
USER_CHARGES


@<TRIPOS>ATOM
      1 C1         -8.5915   -0.9755   60.6740 C.3     1  ZINC000298969660    0.0800
      2 N2        -10.0171   -0.6384   60.6858 N.am    1  ZINC000298969660   -0.6300
      3 C3        -10.4563    0.6696   61.1778 C.3     1  ZINC000298969660    0.1400
      4 C4         -9.7443    0.9846   62.4948 C.3     1  ZINC000298969660    0.0700
      5 H5         -9.2644    0.0822   62.8735 H       1  ZINC000298969660    0.0500
      6 C6        -10.7645    1.4886   63.5191 C.3     1  ZINC000298969660   -0.1500
      7 C7        -10.0358    1.8585   64.8146 C.3     1  ZINC000298969660   -0.1200
      8 C8         -8.9607    2.9040   64.5021 C.3     1  ZINC000298969660   -0.1600
      9 C9         -8.0102    2.3454   63.4398 C.3     1  ZINC000298969660    0.0600
     10 O10        -8.7559    1.9927   62.2730 O.3     1  ZINC000298969660   -0.3600
     11 C11       -10.9244   -1.5317   60.2439 C.2     1  ZINC000298969660    0.7100
     12 O12       -10.5598   -2.6178   59.8369 O.2     1  ZINC000298969660   -0.5400
     13 N13       -12.2359   -1.2210   60.2531 N.am    1  ZINC000298969660   -0.6900
     14 C14       -13.1778   -2.1485   59.7943 C.ar    1  ZINC000298969660    0.2000
     15 C15       -14.2912   -2.4496   60.5680 C.ar    1  ZINC000298969660   -0.1800
     16 C16       -15.2210   -3.3658   60.1152 C.ar    1  ZINC000298969660   -0.0600
     17 C17       -15.0462   -3.9844   58.8922 C.ar    1  ZINC000298969660   -0.2300
     18 C18       -13.9354   -3.6873   58.1146 C.ar    1  ZINC000298969660    0.1500
     19 O19       -13.7646   -4.2969   56.9120 O.3     1  ZINC000298969660   -0.2900
     20 C20       -12.4625   -4.8102   56.6239 C.3     1  ZINC000298969660    0.0400
     21 C21       -11.7432   -3.8639   55.6974 C.2     1  ZINC000298969660    0.5100
     22 O22       -10.5536   -3.6699   55.8327 O.2     1  ZINC000298969660   -0.4900
     23 N23       -12.4219   -3.2333   54.7186 N.am    1  ZINC000298969660   -0.6700
     24 C24       -11.7541   -2.3546   53.8584 C.ar    1  ZINC000298969660    0.1400
     25 C25       -11.7904   -2.5626   52.4858 C.ar    1  ZINC000298969660   -0.1400
     26 C26       -11.1302   -1.6936   51.6394 C.ar    1  ZINC000298969660   -0.1000
     27 C27       -10.4330   -0.6176   52.1574 C.ar    1  ZINC000298969660   -0.1300
     28 C28       -10.3945   -0.4080   53.5237 C.ar    1  ZINC000298969660   -0.1000
     29 C29       -11.0582   -1.2696   54.3750 C.ar    1  ZINC000298969660   -0.1200
     30 C30       -13.0035   -2.7647   58.5629 C.ar    1  ZINC000298969660   -0.1500
     31 H31        -8.3210   -1.4441   61.6203 H       1  ZINC000298969660    0.0600
     32 H32        -8.3881   -1.6660   59.8555 H       1  ZINC000298969660    0.0700
     33 H33        -8.0044   -0.0673   60.5376 H       1  ZINC000298969660    0.0800
     34 H34       -10.2131    1.4353   60.4411 H       1  ZINC000298969660    0.1000
     35 H35       -11.5337    0.6530   61.3422 H       1  ZINC000298969660    0.0900
     36 H36       -11.2737    2.3675   63.1239 H       1  ZINC000298969660    0.0800
     37 H37       -11.4939    0.7046   63.7226 H       1  ZINC000298969660    0.0700
     38 H38       -10.7484    2.2707   65.5290 H       1  ZINC000298969660    0.0700
     39 H39        -9.5676    0.9691   65.2364 H       1  ZINC000298969660    0.0600
     40 H40        -9.4335    3.8116   64.1267 H       1  ZINC000298969660    0.0700
     41 H41        -8.4002    3.1323   65.4086 H       1  ZINC000298969660    0.0700
     42 H42        -7.2683    3.1013   63.1824 H       1  ZINC000298969660    0.0900
     43 H43        -7.5075    1.4608   63.8311 H       1  ZINC000298969660    0.0400
     44 H44       -12.5267   -0.3545   60.5778 H       1  ZINC000298969660    0.4100
     45 H45       -14.4300   -1.9674   61.5244 H       1  ZINC000298969660    0.1300
     46 H46       -16.0858   -3.5992   60.7186 H       1  ZINC000298969660    0.1300
     47 H47       -15.7747   -4.7001   58.5408 H       1  ZINC000298969660    0.1300
     48 H48       -11.8980   -4.9103   57.5509 H       1  ZINC000298969660    0.1000
     49 H49       -12.5540   -5.7861   56.1471 H       1  ZINC000298969660    0.1000
     50 H50       -13.3732   -3.3884   54.6104 H       1  ZINC000298969660    0.4100
     51 H51       -12.3342   -3.4033   52.0807 H       1  ZINC000298969660    0.1300
     52 H52       -11.1582   -1.8548   50.5719 H       1  ZINC000298969660    0.1300
     53 H53        -9.9173    0.0603   51.4934 H       1  ZINC000298969660    0.1200
     54 H54        -9.8486    0.4329   53.9252 H       1  ZINC000298969660    0.1300
     55 H55       -11.0277   -1.1054   55.4420 H       1  ZINC000298969660    0.1300
     56 H56       -12.1387   -2.5323   57.9593 H       1  ZINC000298969660    0.1500
@<TRIPOS>BOND
     1     1     2    1
     2     1    31    1
     3     1    32    1
     4     1    33    1
     5     2     3    1
     6     2    11   am
     7     3     4    1
     8     3    34    1
     9     3    35    1
    10     4     5    1
    11     4    10    1
    12     4     6    1
    13     6     7    1
    14     6    36    1
    15     6    37    1
    16     7     8    1
    17     7    38    1
    18     7    39    1
    19     8     9    1
    20     8    40    1
    21     8    41    1
    22     9    10    1
    23     9    42    1
    24     9    43    1
    25    11    12    2
    26    11    13   am
    27    13    14    1
    28    13    44    1
    29    14    30   ar
    30    14    15   ar
    31    15    16   ar
    32    15    45    1
    33    16    17   ar
    34    16    46    1
    35    17    18   ar
    36    17    47    1
    37    18    19    1
    38    18    30   ar
    39    19    20    1
    40    20    21    1
    41    20    48    1
    42    20    49    1
    43    21    22    2
    44    21    23   am
    45    23    24    1
    46    23    50    1
    47    24    29   ar
    48    24    25   ar
    49    25    26   ar
    50    25    51    1
    51    26    27   ar
    52    26    52    1
    53    27    28   ar
    54    27    53    1
    55    28    29   ar
    56    28    54    1
    57    29    55    1
    58    30    56    1
@<TRIPOS>SUBSTRUCTURE
     1 ZINC000298969660        1 TEMP              0 ****  ****    0 ROOT


##########                                Name:    ZINC001023148918
##########                DOCK_Rotatable_Bonds:                   6
##########                         Heavy_Atoms:                  25
##########                    Molecular_Weight:             348.402
##########                DOCK_Rotatable_Bonds:                   6
##########                       Formal_Charge:           0.0199999
##########                     HBond_Acceptors:                   8
##########                        HBond_Donors:                   2
##########                         Heavy_Atoms:                  25
##########                          Grid_Score:          -29.604027
##########                     Grid_vdw_energy:          -26.548971
##########                      Grid_es_energy:           -3.055056
##########           Internal_energy_repulsive:           10.733123

@<TRIPOS>MOLECULE
ZINC001023148918
 49 52 1 0 0
SMALL
USER_CHARGES


@<TRIPOS>ATOM
      1 C1        -10.1369   -2.1272   52.3977 C.3     1  ZINC001023148918   -0.0700
      2 C2         -9.3906   -0.9166   52.8967 C.2     1  ZINC001023148918    0.0200
      3 N3         -9.5150   -0.3678   54.0780 N.2     1  ZINC001023148918   -0.2700
      4 N4         -8.7407    0.6503   54.1948 N.pl3   1  ZINC001023148918   -0.2500
      5 C5         -8.6295    1.4942   55.3872 C.3     1  ZINC001023148918    0.0800
      6 C6         -8.0365    0.8260   53.0375 C.2     1  ZINC001023148918   -0.0400
      7 C7         -7.0436    1.8758   52.7585 C.2     1  ZINC001023148918    0.6000
      8 O8         -6.8903    2.2813   51.6220 O.2     1  ZINC001023148918   -0.5300
      9 N9         -6.3043    2.3880   53.7622 N.am    1  ZINC001023148918   -0.7000
     10 C10        -5.3159    3.4330   53.4843 C.3     1  ZINC001023148918    0.1500
     11 H11        -5.7802    4.2850   52.9878 H       1  ZINC001023148918    0.1200
     12 C12        -4.1389    2.8753   52.6455 C.3     1  ZINC001023148918    0.1000
     13 N13        -3.0028    3.7634   52.9521 N.am    1  ZINC001023148918   -0.6200
     14 C14        -1.9327    3.9717   52.1597 C.2     1  ZINC001023148918    0.5400
     15 O15        -1.0539    4.7288   52.5141 O.2     1  ZINC001023148918   -0.5200
     16 C16        -1.8281    3.2640   50.8334 C.3     1  ZINC001023148918   -0.1400
     17 H17        -2.7413    3.3969   50.2533 H       1  ZINC001023148918    0.1100
     18 C18        -1.5212    1.7584   51.0370 C.3     1  ZINC001023148918   -0.1400
     19 C19        -0.1424    1.5889   50.3313 C.3     1  ZINC001023148918    0.0600
     20 H20         0.4442    0.7280   50.6522 H       1  ZINC001023148918    0.1300
     21 C21        -0.4496    1.6566   48.8052 C.3     1  ZINC001023148918   -0.1500
     22 C22        -0.7654    3.1581   48.5851 C.3     1  ZINC001023148918   -0.1500
     23 C23        -0.5886    3.7682   50.0349 C.3     1  ZINC001023148918    0.0900
     24 H24        -0.3959    4.8404   50.0703 H       1  ZINC001023148918    0.1400
     25 O25         0.4667    2.8991   50.5758 O.3     1  ZINC001023148918   -0.3600
     26 C26        -3.2310    4.3847   54.2648 C.3     1  ZINC001023148918    0.0700
     27 C27        -4.5919    3.8736   54.7840 C.3     1  ZINC001023148918    0.0900
     28 H28        -4.4549    3.0254   55.4548 H       1  ZINC001023148918    0.0800
     29 O29        -5.3098    4.9220   55.4378 O.3     1  ZINC001023148918   -0.5500
     30 C30        -8.4391   -0.1850   52.1824 C.2     1  ZINC001023148918   -0.1800
     31 H31        -9.5741   -3.0277   52.6433 H       1  ZINC001023148918    0.0800
     32 H32       -11.1173   -2.1706   52.8721 H       1  ZINC001023148918    0.0700
     33 H33       -10.2590   -2.0585   51.3167 H       1  ZINC001023148918    0.0800
     34 H34        -7.9063    1.0569   56.0756 H       1  ZINC001023148918    0.0900
     35 H35        -8.2979    2.4912   55.0970 H       1  ZINC001023148918    0.1100
     36 H36        -9.6013    1.5623   55.8760 H       1  ZINC001023148918    0.0900
     37 H37        -6.4265    2.0647   54.6684 H       1  ZINC001023148918    0.4100
     38 H38        -3.9118    1.8519   52.9441 H       1  ZINC001023148918    0.0800
     39 H39        -4.3772    2.9172   51.5826 H       1  ZINC001023148918    0.0900
     40 H40        -1.4439    1.5201   52.0978 H       1  ZINC001023148918    0.0800
     41 H41        -2.2798    1.1411   50.5557 H       1  ZINC001023148918    0.0900
     42 H42         0.4209    1.3556   48.2224 H       1  ZINC001023148918    0.0800
     43 H43        -1.3136    1.0400   48.5575 H       1  ZINC001023148918    0.0800
     44 H44        -0.0523    3.6052   47.8925 H       1  ZINC001023148918    0.0800
     45 H45        -1.7868    3.2895   48.2278 H       1  ZINC001023148918    0.0800
     46 H46        -2.4383    4.0953   54.9548 H       1  ZINC001023148918    0.0800
     47 H47        -3.2580    5.4694   54.1619 H       1  ZINC001023148918    0.0900
     48 H48        -6.1263    4.6315   55.8668 H       1  ZINC001023148918    0.3900
     49 H49        -8.0954   -0.3659   51.1747 H       1  ZINC001023148918    0.1600
@<TRIPOS>BOND
     1     1     2    1
     2     1    31    1
     3     1    32    1
     4     1    33    1
     5     2    30    1
     6     2     3    2
     7     3     4    1
     8     4     5    1
     9     4     6    1
    10     5    34    1
    11     5    35    1
    12     5    36    1
    13     6     7    1
    14     6    30    2
    15     7     8    2
    16     7     9   am
    17     9    10    1
    18     9    37    1
    19    10    11    1
    20    10    27    1
    21    10    12    1
    22    12    13    1
    23    12    38    1
    24    12    39    1
    25    13    14   am
    26    13    26    1
    27    14    15    2
    28    14    16    1
    29    16    17    1
    30    16    23    1
    31    16    18    1
    32    18    19    1
    33    18    40    1
    34    18    41    1
    35    19    20    1
    36    19    25    1
    37    19    21    1
    38    21    22    1
    39    21    42    1
    40    21    43    1
    41    22    23    1
    42    22    44    1
    43    22    45    1
    44    23    24    1
    45    23    25    1
    46    26    27    1
    47    26    46    1
    48    26    47    1
    49    27    28    1
    50    27    29    1
    51    29    48    1
    52    30    49    1
@<TRIPOS>SUBSTRUCTURE
     1 ZINC001023148918        1 TEMP              0 ****  ****    0 ROOT


##########                                Name:    ZINC000962730513
##########                DOCK_Rotatable_Bonds:                   6
##########                         Heavy_Atoms:                  24
##########                    Molecular_Weight:             342.465
##########                DOCK_Rotatable_Bonds:                   6
##########                       Formal_Charge:         -0.00999998
##########                     HBond_Acceptors:                   6
##########                        HBond_Donors:                   1
##########                         Heavy_Atoms:                  24
##########                          Grid_Score:          -29.601391
##########                     Grid_vdw_energy:          -29.418665
##########                      Grid_es_energy:           -0.182726
##########           Internal_energy_repulsive:           16.128698

@<TRIPOS>MOLECULE
ZINC000962730513
 46 49 1 0 0
SMALL
USER_CHARGES


@<TRIPOS>ATOM
      1 C1        -12.1404   -0.6490   60.6916 C.3     1  ZINC000962730513   -0.1400
      2 C2        -12.4918   -2.1277   60.8675 C.3     1  ZINC000962730513   -0.0800
      3 C3        -13.9028   -2.3682   60.3961 C.2     1  ZINC000962730513   -0.0100
      4 C4        -14.2295   -2.5965   59.0889 C.2     1  ZINC000962730513   -0.2800
      5 C5        -13.2823   -2.6419   57.9711 C.2     1  ZINC000962730513    0.6000
      6 O6        -12.0927   -2.4851   58.1747 O.2     1  ZINC000962730513   -0.5200
      7 N7        -13.7289   -2.8575   56.7179 N.am    1  ZINC000962730513   -0.7000
      8 C8        -12.7824   -2.9012   55.6005 C.3     1  ZINC000962730513    0.1200
      9 H9        -12.1813   -3.8077   55.5296 H       1  ZINC000962730513    0.1400
     10 C10       -12.1254   -1.5847   55.1811 C.3     1  ZINC000962730513   -0.1700
     11 H11       -12.3217   -0.6794   55.7555 H       1  ZINC000962730513    0.1200
     12 C12       -10.8074   -1.6519   54.3801 C.3     1  ZINC000962730513    0.0700
     13 N13       -11.2363   -1.7559   52.9616 N.3     1  ZINC000962730513   -0.5000
     14 C14       -10.1648   -2.3162   52.1272 C.3     1  ZINC000962730513    0.1100
     15 C15        -8.9874   -1.3757   52.1230 C.ar    1  ZINC000962730513    0.3200
     16 N16        -7.7742   -1.8674   51.9705 N.ar    1  ZINC000962730513   -0.5100
     17 C17        -6.7165   -1.0721   51.9618 C.ar    1  ZINC000962730513    0.1500
     18 C18        -6.8984    0.2932   52.1156 C.ar    1  ZINC000962730513   -0.1900
     19 C19        -5.7210    1.2339   52.1109 C.3     1  ZINC000962730513   -0.1100
     20 C20        -8.1892    0.7727   52.2735 C.ar    1  ZINC000962730513    0.1500
     21 N21        -9.1988   -0.0827   52.2667 N.ar    1  ZINC000962730513   -0.5000
     22 C22       -12.4107   -2.6649   53.0011 C.3     1  ZINC000962730513    0.0700
     23 C23       -13.2054   -2.2313   54.2917 C.3     1  ZINC000962730513   -0.1700
     24 H24       -14.2015   -1.8107   54.1540 H       1  ZINC000962730513    0.1300
     25 S25       -15.9680   -2.8273   58.9629 S.3     1  ZINC000962730513    0.1900
     26 C26       -16.1659   -2.6095   60.6435 C.2     1  ZINC000962730513   -0.2200
     27 C27       -14.9885   -2.3857   61.2390 C.2     1  ZINC000962730513   -0.1500
     28 H28       -12.2227   -0.3787   59.6388 H       1  ZINC000962730513    0.0600
     29 H29       -12.8281   -0.0399   61.2780 H       1  ZINC000962730513    0.0500
     30 H30       -11.1198   -0.4750   61.0326 H       1  ZINC000962730513    0.0600
     31 H31       -11.8039   -2.7368   60.2810 H       1  ZINC000962730513    0.1000
     32 H32       -12.4093   -2.3980   61.9202 H       1  ZINC000962730513    0.0700
     33 H33       -14.6769   -2.9836   56.5559 H       1  ZINC000962730513    0.4000
     34 H34       -10.2219   -0.7456   54.5346 H       1  ZINC000962730513    0.0900
     35 H35       -10.2316   -2.5313   54.6685 H       1  ZINC000962730513    0.0500
     36 H36        -9.8575   -3.2813   52.5303 H       1  ZINC000962730513    0.1000
     37 H37       -10.5288   -2.4474   51.1082 H       1  ZINC000962730513    0.0700
     38 H38        -5.7250   -1.4815   51.8366 H       1  ZINC000962730513    0.1700
     39 H39        -5.5238    1.5640   51.0911 H       1  ZINC000962730513    0.0800
     40 H40        -5.9443    2.0985   52.7359 H       1  ZINC000962730513    0.0700
     41 H41        -4.8435    0.7195   52.5025 H       1  ZINC000962730513    0.0700
     42 H42        -8.3689    1.8305   52.3965 H       1  ZINC000962730513    0.1700
     43 H43       -13.0325   -2.5213   52.1174 H       1  ZINC000962730513    0.0800
     44 H44       -12.0858   -3.7027   53.0738 H       1  ZINC000962730513    0.0600
     45 H45       -17.1142   -2.6508   61.1586 H       1  ZINC000962730513    0.1700
     46 H46       -14.8990   -2.2225   62.3028 H       1  ZINC000962730513    0.1500
@<TRIPOS>BOND
     1     1     2    1
     2     1    28    1
     3     1    29    1
     4     1    30    1
     5     2     3    1
     6     2    31    1
     7     2    32    1
     8     3    27    1
     9     3     4    2
    10     4     5    1
    11     4    25    1
    12     5     6    2
    13     5     7   am
    14     7     8    1
    15     7    33    1
    16     8     9    1
    17     8    23    1
    18     8    10    1
    19    10    11    1
    20    10    23    1
    21    10    12    1
    22    12    13    1
    23    12    34    1
    24    12    35    1
    25    13    14    1
    26    13    22    1
    27    14    15    1
    28    14    36    1
    29    14    37    1
    30    15    21   ar
    31    15    16   ar
    32    16    17   ar
    33    17    18   ar
    34    17    38    1
    35    18    19    1
    36    18    20   ar
    37    19    39    1
    38    19    40    1
    39    19    41    1
    40    20    21   ar
    41    20    42    1
    42    22    23    1
    43    22    43    1
    44    22    44    1
    45    23    24    1
    46    25    26    1
    47    26    27    2
    48    26    45    1
    49    27    46    1
@<TRIPOS>SUBSTRUCTURE
     1 ZINC000962730513        1 TEMP              0 ****  ****    0 ROOT


##########                                Name:    ZINC000291036115
##########                DOCK_Rotatable_Bonds:                   5
##########                         Heavy_Atoms:                  22
##########                    Molecular_Weight:             366.193
##########                DOCK_Rotatable_Bonds:                   5
##########                       Formal_Charge:                0.01
##########                     HBond_Acceptors:                   7
##########                        HBond_Donors:                   0
##########                         Heavy_Atoms:                  22
##########                          Grid_Score:          -29.590723
##########                     Grid_vdw_energy:          -29.146769
##########                      Grid_es_energy:           -0.443955
##########           Internal_energy_repulsive:            7.918276

@<TRIPOS>MOLECULE
ZINC000291036115
 35 37 1 0 0
SMALL
USER_CHARGES


@<TRIPOS>ATOM
      1 C1         -1.6159    4.7125   51.4140 C.3     1  <0>        -0.1500
      2 C2         -2.2112    3.3386   51.0989 C.3     1  <0>        -0.0400
      3 H3         -3.0981    3.4609   50.4772 H       1  <0>         0.0900
      4 C4         -2.5955    2.6380   52.4036 C.3     1  <0>        -0.0200
      5 C5         -3.9935    2.0878   52.2854 C.2     1  <0>         0.1900
      6 N6         -4.3737    1.0736   51.5461 N.2     1  <0>        -0.4500
      7 C7         -5.6961    0.9477   51.7568 C.2     1  <0>         0.1500
      8 C8         -6.6048   -0.0798   51.1327 C.3     1  <0>         0.2300
      9 N9         -7.8707   -0.1236   51.8688 N.pl3   1  <0>        -0.3900
     10 C10        -8.7121    0.9021   52.0862 C.2     1  <0>         0.2600
     11 N11        -9.7263    0.4549   52.7814 N.2     1  <0>        -0.5400
     12 C12        -9.5685   -0.8454   53.0256 C.2     1  <0>         0.2000
     13 N13        -8.4493   -1.2466   52.4824 N.2     1  <0>        -0.3100
     14 N14        -6.0462    1.8744   52.5978 N.2     1  <0>        -0.3600
     15 O15        -5.0817    2.5367   52.9182 O.3     1  <0>         0.0900
     16 C16        -1.1926    2.5067   50.3631 C.ar    1  <0>        -0.0900
     17 C17         0.0589    2.3019   50.9129 C.ar    1  <0>        -0.0700
     18 C18         0.9942    1.5387   50.2396 C.ar    1  <0>        -0.1400
     19 C19         0.6774    0.9790   49.0139 C.ar    1  <0>         0.1300
     20 F20         1.5907    0.2325   48.3552 F       1  <0>        -0.1200
     21 C21        -0.5774    1.1847   48.4633 C.ar    1  <0>        -0.1300
     22 Br22       -1.0129    0.4207   46.7893 Br      1  <0>        -0.0200
     23 C23        -1.5128    1.9441   49.1414 C.ar    1  <0>        -0.0500
     24 H24        -2.3527    5.3143   51.9462 H       1  <0>         0.0600
     25 H25        -0.7291    4.5902   52.0357 H       1  <0>         0.0700
     26 H26        -1.3421    5.2116   50.4845 H       1  <0>         0.0700
     27 H27        -1.8991    1.8220   52.5966 H       1  <0>         0.1200
     28 H28        -2.5547    3.3527   53.2255 H       1  <0>         0.1100
     29 H29        -6.7976    0.1886   50.0941 H       1  <0>         0.1300
     30 H30        -6.1275   -1.0589   51.1724 H       1  <0>         0.1200
     31 H31        -8.5745    1.9182   51.7469 H       1  <0>         0.2200
     32 H32       -10.2560   -1.4679   53.5790 H       1  <0>         0.2200
     33 H33         0.3064    2.7389   51.8691 H       1  <0>         0.1400
     34 H34         1.9720    1.3793   50.6695 H       1  <0>         0.1500
     35 H35        -2.4910    2.1048   48.7128 H       1  <0>         0.1400
@<TRIPOS>BOND
     1     1     2    1
     2     1    24    1
     3     1    25    1
     4     1    26    1
     5     2     3    1
     6     2     4    1
     7     2    16    1
     8     4     5    1
     9     4    27    1
    10     4    28    1
    11     5    15    1
    12     5     6    2
    13     6     7    1
    14     7     8    1
    15     7    14    2
    16     8     9    1
    17     8    29    1
    18     8    30    1
    19     9    13    1
    20     9    10    1
    21    10    11    2
    22    10    31    1
    23    11    12    1
    24    12    13    2
    25    12    32    1
    26    14    15    1
    27    16    23   ar
    28    16    17   ar
    29    17    18   ar
    30    17    33    1
    31    18    19   ar
    32    18    34    1
    33    19    20    1
    34    19    21   ar
    35    21    22    1
    36    21    23   ar
    37    23    35    1
@<TRIPOS>SUBSTRUCTURE
     1 <0>         1 TEMP              0 ****  ****    0 ROOT


##########                                Name:    ZINC000331626032
##########                DOCK_Rotatable_Bonds:                   5
##########                         Heavy_Atoms:                  25
##########                    Molecular_Weight:              339.44
##########                DOCK_Rotatable_Bonds:                   5
##########                       Formal_Charge:        -2.16067e-07
##########                     HBond_Acceptors:                   6
##########                        HBond_Donors:                   2
##########                         Heavy_Atoms:                  25
##########                          Grid_Score:          -29.590578
##########                     Grid_vdw_energy:          -29.206314
##########                      Grid_es_energy:           -0.384265
##########           Internal_energy_repulsive:           20.507458

@<TRIPOS>MOLECULE
ZINC000331626032
 50 52 1 0 0
SMALL
USER_CHARGES


@<TRIPOS>ATOM
      1 C1        -13.5958   -4.4859   56.4128 C.3     1  ZINC000331626032   -0.2000
      2 C2        -12.6694   -3.2897   56.1848 C.3     1  ZINC000331626032    0.0700
      3 H3        -13.1791   -2.3735   56.4827 H       1  ZINC000331626032    0.1100
      4 C4        -11.4186   -3.4590   57.0081 C.2     1  ZINC000331626032    0.5200
      5 O5        -10.6371   -4.3494   56.7477 O.2     1  ZINC000331626032   -0.5000
      6 N6        -11.1683   -2.6212   58.0336 N.am    1  ZINC000331626032   -0.5800
      7 C7         -9.9524   -2.7856   58.8339 C.3     1  ZINC000331626032    0.0800
      8 C8        -12.0699   -1.5941   58.3339 C.ar    1  ZINC000331626032    0.1400
      9 C9        -12.0182   -0.3960   57.6334 C.ar    1  ZINC000331626032   -0.1000
     10 C10       -12.9096    0.6158   57.9321 C.ar    1  ZINC000331626032   -0.1100
     11 C11       -13.8524    0.4371   58.9277 C.ar    1  ZINC000331626032   -0.1200
     12 C12       -13.9062   -0.7545   59.6273 C.ar    1  ZINC000331626032   -0.1100
     13 C13       -13.0220   -1.7726   59.3289 C.ar    1  ZINC000331626032   -0.1200
     14 N14       -12.3123   -3.2111   54.7621 N.3     1  ZINC000331626032   -0.5100
     15 C15       -13.4858   -2.8834   53.9424 C.3     1  ZINC000331626032    0.0500
     16 C16       -13.1100   -2.9529   52.4605 C.3     1  ZINC000331626032   -0.1100
     17 C17       -11.9757   -1.9635   52.1796 C.3     1  ZINC000331626032   -0.1100
     18 C18       -10.7835   -2.2970   53.0806 C.3     1  ZINC000331626032   -0.0400
     19 H19       -10.4178   -3.2966   52.8453 H       1  ZINC000331626032    0.1000
     20 C20        -9.6836   -1.2924   52.8521 C.ar    1  ZINC000331626032    0.2300
     21 C21        -9.7716   -0.0206   53.3954 C.ar    1  ZINC000331626032   -0.2900
     22 C22        -8.7381    0.8732   53.1611 C.ar    1  ZINC000331626032    0.1900
     23 N23        -7.7051    0.4879   52.4305 N.ar    1  ZINC000331626032   -0.5700
     24 C24        -7.6518   -0.7360   51.9254 C.ar    1  ZINC000331626032    0.5700
     25 N25        -6.5556   -1.1060   51.1657 N.pl3   1  ZINC000331626032   -0.8200
     26 N26        -8.6199   -1.6156   52.1351 N.ar    1  ZINC000331626032   -0.5700
     27 C27       -11.2266   -2.2466   54.5445 C.3     1  ZINC000331626032    0.0700
     28 H28       -13.0860   -5.4021   56.1149 H       1  ZINC000331626032    0.0700
     29 H29       -13.8607   -4.5443   57.4685 H       1  ZINC000331626032    0.0800
     30 H30       -14.5005   -4.3634   55.8173 H       1  ZINC000331626032    0.0700
     31 H31        -9.1463   -2.1973   58.3954 H       1  ZINC000331626032    0.0600
     32 H32       -10.1387   -2.4444   59.8523 H       1  ZINC000331626032    0.0800
     33 H33        -9.6673   -3.8376   58.8497 H       1  ZINC000331626032    0.0800
     34 H34       -11.2816   -0.2556   56.8561 H       1  ZINC000331626032    0.1200
     35 H35       -12.8699    1.5478   57.3878 H       1  ZINC000331626032    0.1300
     36 H36       -14.5481    1.2300   59.1596 H       1  ZINC000331626032    0.1300
     37 H37       -14.6433   -0.8907   60.4049 H       1  ZINC000331626032    0.1300
     38 H38       -13.0645   -2.7031   59.8757 H       1  ZINC000331626032    0.1200
     39 H39       -14.2836   -3.5969   54.1486 H       1  ZINC000331626032    0.0900
     40 H40       -13.8277   -1.8769   54.1835 H       1  ZINC000331626032    0.0300
     41 H41       -12.7811   -3.9627   52.2154 H       1  ZINC000331626032    0.0800
     42 H42       -13.9772   -2.6944   51.8526 H       1  ZINC000331626032    0.0700
     43 H43       -11.6755   -2.0406   51.1347 H       1  ZINC000331626032    0.0700
     44 H44       -12.3170   -0.9494   52.3877 H       1  ZINC000331626032    0.0700
     45 H45       -10.6270    0.2682   53.9882 H       1  ZINC000331626032    0.1400
     46 H46        -8.7762    1.8721   53.5699 H       1  ZINC000331626032    0.1700
     47 H47        -5.8381   -0.4725   51.0086 H       1  ZINC000331626032    0.4100
     48 H48        -6.5048   -1.9991   50.7905 H       1  ZINC000331626032    0.4100
     49 H49       -11.5791   -1.2430   54.7828 H       1  ZINC000331626032    0.0400
     50 H50       -10.3834   -2.4976   55.1881 H       1  ZINC000331626032    0.0800
@<TRIPOS>BOND
     1     1     2    1
     2     1    28    1
     3     1    29    1
     4     1    30    1
     5     2     3    1
     6     2     4    1
     7     2    14    1
     8     4     5    2
     9     4     6   am
    10     6     7    1
    11     6     8    1
    12     7    31    1
    13     7    32    1
    14     7    33    1
    15     8    13   ar
    16     8     9   ar
    17     9    10   ar
    18     9    34    1
    19    10    11   ar
    20    10    35    1
    21    11    12   ar
    22    11    36    1
    23    12    13   ar
    24    12    37    1
    25    13    38    1
    26    14    27    1
    27    14    15    1
    28    15    16    1
    29    15    39    1
    30    15    40    1
    31    16    17    1
    32    16    41    1
    33    16    42    1
    34    17    18    1
    35    17    43    1
    36    17    44    1
    37    18    19    1
    38    18    20    1
    39    18    27    1
    40    20    26   ar
    41    20    21   ar
    42    21    22   ar
    43    21    45    1
    44    22    23   ar
    45    22    46    1
    46    23    24   ar
    47    24    25    1
    48    24    26   ar
    49    25    47    1
    50    25    48    1
    51    27    49    1
    52    27    50    1
@<TRIPOS>SUBSTRUCTURE
     1 ZINC000331626032        1 TEMP              0 ****  ****    0 ROOT


##########                                Name:    ZINC000676204775
##########                DOCK_Rotatable_Bonds:                   4
##########                         Heavy_Atoms:                  25
##########                    Molecular_Weight:             359.452
##########                DOCK_Rotatable_Bonds:                   4
##########                       Formal_Charge:          0.00999978
##########                     HBond_Acceptors:                   8
##########                        HBond_Donors:                   2
##########                         Heavy_Atoms:                  25
##########                          Grid_Score:          -29.585793
##########                     Grid_vdw_energy:          -29.348846
##########                      Grid_es_energy:           -0.236946
##########           Internal_energy_repulsive:           19.322252

@<TRIPOS>MOLECULE
ZINC000676204775
 46 49 1 0 0
SMALL
USER_CHARGES


@<TRIPOS>ATOM
      1 C1         -8.5902    3.0321   52.3645 C.3     1  ZINC000676204775   -0.1600
      2 C2         -7.3375    3.0966   53.2408 C.3     1  ZINC000676204775    0.1600
      3 C3         -7.6789    2.6205   54.6542 C.3     1  ZINC000676204775   -0.1600
      4 N4         -6.2990    2.2339   52.6723 N.pl3   1  ZINC000676204775   -0.3900
      5 N5         -6.4913    0.9265   52.2139 N.2     1  ZINC000676204775   -0.2500
      6 C6         -5.3685    0.4384   51.7696 C.2     1  ZINC000676204775    0.0900
      7 C7         -4.3425    1.4638   51.9292 C.ar    1  ZINC000676204775   -0.2100
      8 C8         -2.9749    1.5244   51.6402 C.ar    1  ZINC000676204775    0.0800
      9 C9         -2.2761    2.6635   51.9185 C.ar    1  ZINC000676204775   -0.7200
     10 S10        -0.5538    2.7415   51.5547 S.o2    1  ZINC000676204775    2.6900
     11 O11         0.0534    3.4370   52.6349 O.2     1  ZINC000676204775   -0.9300
     12 O12        -0.1679    1.4328   51.1580 O.2     1  ZINC000676204775   -0.9600
     13 N13        -0.3781    3.7057   50.2199 N.am    1  ZINC000676204775   -1.1100
     14 C14        -1.0258    3.3361   48.9589 C.3     1  ZINC000676204775    0.2400
     15 H15        -2.1015    3.4936   49.0381 H       1  ZINC000676204775    0.1000
     16 C16        -0.7405    1.8625   48.6432 C.3     1  ZINC000676204775   -0.1200
     17 C17        -1.2067    1.5388   47.2220 C.3     1  ZINC000676204775   -0.1200
     18 C18        -0.2671    2.1998   46.2058 C.3     1  ZINC000676204775   -0.0400
     19 C19        -0.1190    3.6545   46.5781 C.2     1  ZINC000676204775   -0.2300
     20 C20         0.3470    4.6661   45.8226 C.2     1  ZINC000676204775    0.0600
     21 N21         0.2945    5.7921   46.5690 N.pl3   1  ZINC000676204775   -0.4800
     22 N22        -0.2228    5.4534   47.8286 N.2     1  ZINC000676204775   -0.2400
     23 C23        -0.4695    4.1765   47.8351 C.2     1  ZINC000676204775    0.0500
     24 C24        -2.9099    3.7620   52.4856 C.ar    1  ZINC000676204775    0.0100
     25 C25        -4.2444    3.7269   52.7768 C.ar    1  ZINC000676204775   -0.1500
     26 C26        -4.9844    2.5805   52.4990 C.ar    1  ZINC000676204775    0.1700
     27 H27        -8.3470    3.3714   51.3576 H       1  ZINC000676204775    0.0600
     28 H28        -8.9528    2.0051   52.3243 H       1  ZINC000676204775    0.0700
     29 H29        -9.3629    3.6740   52.7875 H       1  ZINC000676204775    0.0800
     30 H30        -6.9749    4.1238   53.2811 H       1  ZINC000676204775    0.1000
     31 H31        -8.0416    1.5934   54.6139 H       1  ZINC000676204775    0.0700
     32 H32        -6.7866    2.6664   55.2785 H       1  ZINC000676204775    0.0600
     33 H33        -8.4517    3.2624   55.0772 H       1  ZINC000676204775    0.0800
     34 H34        -5.2228   -0.5490   51.3569 H       1  ZINC000676204775    0.2000
     35 H35        -2.4749    0.6746   51.1997 H       1  ZINC000676204775    0.1500
     36 H36         0.1537    4.5153   50.2729 H       1  ZINC000676204775    0.4200
     37 H37         0.3300    1.6750   48.7251 H       1  ZINC000676204775    0.0800
     38 H38        -1.2739    1.2299   49.3526 H       1  ZINC000676204775    0.0800
     39 H39        -1.1979    0.4588   47.0748 H       1  ZINC000676204775    0.0700
     40 H40        -2.2194    1.9154   47.0779 H       1  ZINC000676204775    0.0700
     41 H41         0.7072    1.7120   46.2342 H       1  ZINC000676204775    0.0700
     42 H42        -0.6912    2.1177   45.2051 H       1  ZINC000676204775    0.0700
     43 H43         0.6989    4.5917   44.8043 H       1  ZINC000676204775    0.1800
     44 H44         0.5667    6.6783   46.2838 H       1  ZINC000676204775    0.4400
     45 H45        -2.3407    4.6546   52.6993 H       1  ZINC000676204775    0.1500
     46 H46        -4.7249    4.5878   53.2176 H       1  ZINC000676204775    0.1300
@<TRIPOS>BOND
     1     1     2    1
     2     1    27    1
     3     1    28    1
     4     1    29    1
     5     2     3    1
     6     2     4    1
     7     2    30    1
     8     3    31    1
     9     3    32    1
    10     3    33    1
    11     4    26    1
    12     4     5    1
    13     5     6    2
    14     6     7    1
    15     6    34    1
    16     7    26   ar
    17     7     8   ar
    18     8     9   ar
    19     8    35    1
    20     9    10    1
    21     9    24   ar
    22    10    11    2
    23    10    12    2
    24    10    13   am
    25    13    14    1
    26    13    36    1
    27    14    15    1
    28    14    23    1
    29    14    16    1
    30    16    17    1
    31    16    37    1
    32    16    38    1
    33    17    18    1
    34    17    39    1
    35    17    40    1
    36    18    19    1
    37    18    41    1
    38    18    42    1
    39    19    23    1
    40    19    20    2
    41    20    21    1
    42    20    43    1
    43    21    22    1
    44    21    44    1
    45    22    23    2
    46    24    25   ar
    47    24    45    1
    48    25    26   ar
    49    25    46    1
@<TRIPOS>SUBSTRUCTURE
     1 ZINC000676204775        1 TEMP              0 ****  ****    0 ROOT


##########                                Name:    ZINC000863246516
##########                DOCK_Rotatable_Bonds:                   5
##########                         Heavy_Atoms:                  25
##########                    Molecular_Weight:             356.489
##########                DOCK_Rotatable_Bonds:                   5
##########                       Formal_Charge:         -0.00999938
##########                     HBond_Acceptors:                   5
##########                        HBond_Donors:                   0
##########                         Heavy_Atoms:                  25
##########                          Grid_Score:          -29.584290
##########                     Grid_vdw_energy:          -29.324364
##########                      Grid_es_energy:           -0.259926
##########           Internal_energy_repulsive:           19.135466

@<TRIPOS>MOLECULE
ZINC000863246516
 49 52 1 0 0
SMALL
USER_CHARGES


@<TRIPOS>ATOM
      1 C1        -10.5640   -2.3406   59.4089 C.3     1  ZINC000863246516   -0.0600
      2 C2        -11.4082   -3.0546   58.3847 C.2     1  ZINC000863246516   -0.2000
      3 C3        -12.7002   -2.8796   58.1445 C.2     1  ZINC000863246516    0.0900
      4 C4        -13.5205   -1.8816   58.9204 C.3     1  ZINC000863246516   -0.1000
      5 N5        -13.2497   -3.6465   57.1608 N.am    1  ZINC000863246516   -0.5300
      6 C6        -14.6680   -3.5365   56.8103 C.3     1  ZINC000863246516    0.1200
      7 C7        -14.7999   -3.0821   55.3553 C.3     1  ZINC000863246516   -0.1500
      8 C8        -14.1067   -1.7556   55.1785 C.2     1  ZINC000863246516    0.5400
      9 O9        -14.3099   -0.8555   55.9656 O.2     1  ZINC000863246516   -0.5300
     10 N10       -13.2611   -1.5696   54.1457 N.am    1  ZINC000863246516   -0.6100
     11 C11       -12.9309   -2.5736   53.1279 C.3     1  ZINC000863246516    0.1100
     12 C12       -12.3265   -1.8116   51.9332 C.3     1  ZINC000863246516   -0.1300
     13 H13       -12.9982   -1.6584   51.0887 H       1  ZINC000863246516    0.1000
     14 C14       -10.8942   -2.2577   51.5956 C.3     1  ZINC000863246516   -0.1200
     15 C15       -10.4243   -1.4031   52.7838 C.3     1  ZINC000863246516   -0.0600
     16 H16       -10.4060   -1.9443   53.7298 H       1  ZINC000863246516    0.1000
     17 C17        -9.1467   -0.6498   52.5165 C.ar    1  ZINC000863246516   -0.0700
     18 C18        -8.0387   -1.3186   52.0310 C.ar    1  ZINC000863246516   -0.1200
     19 C19        -6.8668   -0.6276   51.7859 C.ar    1  ZINC000863246516   -0.1200
     20 C20        -6.8030    0.7323   52.0259 C.ar    1  ZINC000863246516   -0.1200
     21 C21        -7.9115    1.4012   52.5105 C.ar    1  ZINC000863246516   -0.1200
     22 C22        -9.0847    0.7110   52.7516 C.ar    1  ZINC000863246516   -0.1200
     23 C23       -11.7079   -0.5481   52.5817 C.3     1  ZINC000863246516   -0.1100
     24 H24       -11.5994    0.3278   51.9421 H       1  ZINC000863246516    0.1200
     25 C25       -12.5318   -0.3298   53.8595 C.3     1  ZINC000863246516    0.1200
     26 C26       -12.4375   -4.5064   56.5260 C.2     1  ZINC000863246516    0.4800
     27 O27       -12.7370   -5.2714   55.6263 O.2     1  ZINC000863246516   -0.4700
     28 S28       -10.8837   -4.3014   57.2397 S.3     1  ZINC000863246516    0.0100
     29 H29        -9.5389   -2.7068   59.3537 H       1  ZINC000863246516    0.0700
     30 H30       -10.5784   -1.2693   59.2086 H       1  ZINC000863246516    0.0800
     31 H31       -10.9642   -2.5295   60.4050 H       1  ZINC000863246516    0.0800
     32 H32       -12.8868   -1.3813   59.6527 H       1  ZINC000863246516    0.0900
     33 H33       -13.9373   -1.1431   58.2356 H       1  ZINC000863246516    0.0800
     34 H34       -14.3309   -2.3986   59.4343 H       1  ZINC000863246516    0.0800
     35 H35       -15.1488   -4.5070   56.9329 H       1  ZINC000863246516    0.1000
     36 H36       -15.1481   -2.8079   57.4634 H       1  ZINC000863246516    0.1000
     37 H37       -14.3403   -3.8223   54.7003 H       1  ZINC000863246516    0.1000
     38 H38       -15.8548   -2.9774   55.1015 H       1  ZINC000863246516    0.1000
     39 H39       -12.2037   -3.2820   53.5248 H       1  ZINC000863246516    0.0700
     40 H40       -13.8333   -3.0999   52.8165 H       1  ZINC000863246516    0.0800
     41 H41       -10.7263   -3.3258   51.7336 H       1  ZINC000863246516    0.0800
     42 H42       -10.5405   -1.8946   50.6307 H       1  ZINC000863246516    0.0900
     43 H43        -8.0884   -2.3810   51.8435 H       1  ZINC000863246516    0.1200
     44 H44        -6.0008   -1.1503   51.4072 H       1  ZINC000863246516    0.1200
     45 H45        -5.8873    1.2720   51.8350 H       1  ZINC000863246516    0.1200
     46 H46        -7.8616    2.4636   52.6984 H       1  ZINC000863246516    0.1200
     47 H47        -9.9506    1.2336   53.1303 H       1  ZINC000863246516    0.1200
     48 H48       -13.2259    0.4978   53.7136 H       1  ZINC000863246516    0.0700
     49 H49       -11.8661   -0.1099   54.6942 H       1  ZINC000863246516    0.0700
@<TRIPOS>BOND
     1     1     2    1
     2     1    29    1
     3     1    30    1
     4     1    31    1
     5     2    28    1
     6     2     3    2
     7     3     4    1
     8     3     5    1
     9     4    32    1
    10     4    33    1
    11     4    34    1
    12     5     6    1
    13     5    26   am
    14     6     7    1
    15     6    35    1
    16     6    36    1
    17     7     8    1
    18     7    37    1
    19     7    38    1
    20     8     9    2
    21     8    10   am
    22    10    25    1
    23    10    11    1
    24    11    12    1
    25    11    39    1
    26    11    40    1
    27    12    13    1
    28    12    23    1
    29    12    14    1
    30    14    15    1
    31    14    41    1
    32    14    42    1
    33    15    16    1
    34    15    17    1
    35    15    23    1
    36    17    22   ar
    37    17    18   ar
    38    18    19   ar
    39    18    43    1
    40    19    20   ar
    41    19    44    1
    42    20    21   ar
    43    20    45    1
    44    21    22   ar
    45    21    46    1
    46    22    47    1
    47    23    24    1
    48    23    25    1
    49    25    48    1
    50    25    49    1
    51    26    27    2
    52    26    28    1
@<TRIPOS>SUBSTRUCTURE
     1 ZINC000863246516        1 TEMP              0 ****  ****    0 ROOT


##########                                Name:    ZINC000274225049
##########                DOCK_Rotatable_Bonds:                   6
##########                         Heavy_Atoms:                  25
##########                    Molecular_Weight:             380.895
##########                DOCK_Rotatable_Bonds:                   6
##########                       Formal_Charge:           0.0200006
##########                     HBond_Acceptors:                   7
##########                        HBond_Donors:                   2
##########                         Heavy_Atoms:                  25
##########                          Grid_Score:          -29.563568
##########                     Grid_vdw_energy:          -29.187477
##########                      Grid_es_energy:           -0.376091
##########           Internal_energy_repulsive:           11.602846

@<TRIPOS>MOLECULE
ZINC000274225049
 46 48 1 0 0
SMALL
USER_CHARGES


@<TRIPOS>ATOM
      1 C1        -11.4493   -1.9428   51.6524 C.3     1  ZINC000274225049   -0.1600
      2 C2        -10.9475   -1.5398   53.0404 C.3     1  ZINC000274225049    0.2000
      3 H3        -10.3024   -2.3246   53.4356 H       1  ZINC000274225049    0.1100
      4 N4        -12.0905   -1.3499   53.9368 N.am    1  ZINC000274225049   -0.7400
      5 C5        -12.4259   -2.3155   54.8151 C.2     1  ZINC000274225049    0.7100
      6 O6        -11.7789   -3.3437   54.8645 O.2     1  ZINC000274225049   -0.5800
      7 N7        -13.4785   -2.1414   55.6386 N.am    1  ZINC000274225049   -0.7500
      8 C8        -13.8420   -3.1903   56.5946 C.3     1  ZINC000274225049    0.1500
      9 C9        -14.6515   -2.5785   57.7397 C.3     1  ZINC000274225049   -0.1000
     10 H10       -15.5151   -2.0451   57.3426 H       1  ZINC000274225049    0.1000
     11 C11       -13.7680   -1.6181   58.5551 C.3     1  ZINC000274225049   -0.1100
     12 C12       -14.4881   -1.2864   59.8774 C.3     1  ZINC000274225049   -0.5900
     13 S13       -15.5354   -2.7445   60.2279 S.o2    1  ZINC000274225049    2.3900
     14 O14       -15.0273   -3.4266   61.3662 O.2     1  ZINC000274225049   -0.9300
     15 O15       -16.9036   -2.3631   60.1837 O.2     1  ZINC000274225049   -0.9300
     16 C16       -15.1167   -3.6908   58.7146 C.3     1  ZINC000274225049   -0.5900
     17 C17       -10.1691   -0.2533   52.9392 C.ar    1  ZINC000274225049   -0.0700
     18 C18        -8.8274   -0.2709   52.5225 C.ar    1  ZINC000274225049   -0.0300
     19 C19        -8.1815   -1.4747   52.1924 C.ar    1  ZINC000274225049   -0.1100
     20 C20        -6.8810   -1.4532   51.7923 C.ar    1  ZINC000274225049   -0.1100
     21 C21        -6.1769   -0.2536   51.7043 C.ar    1  ZINC000274225049   -0.1100
     22 C22        -6.7696    0.9313   52.0159 C.ar    1  ZINC000274225049   -0.1000
     23 C23        -8.1114    0.9490   52.4330 C.ar    1  ZINC000274225049   -0.0400
     24 C24        -8.7579    2.1533   52.7628 C.ar    1  ZINC000274225049   -0.0300
     25 Cl25       -7.9019    3.6601   52.6601 Cl      1  ZINC000274225049   -0.0600
     26 C26       -10.0601    2.1311   53.1629 C.ar    1  ZINC000274225049   -0.1000
     27 C27       -10.7644    0.9321   53.2457 C.ar    1  ZINC000274225049   -0.1000
     28 H28       -12.0121   -2.8733   51.7255 H       1  ZINC000274225049    0.0700
     29 H29       -12.0943   -1.1580   51.2572 H       1  ZINC000274225049    0.0700
     30 H30       -10.5987   -2.0842   50.9854 H       1  ZINC000274225049    0.0800
     31 H31       -12.6060   -0.5290   53.8981 H       1  ZINC000274225049    0.4000
     32 H32       -13.9954   -1.3216   55.5984 H       1  ZINC000274225049    0.4000
     33 H33       -14.4411   -3.9491   56.0910 H       1  ZINC000274225049    0.0800
     34 H34       -12.9367   -3.6479   56.9935 H       1  ZINC000274225049    0.0800
     35 H35       -12.8104   -2.0929   58.7684 H       1  ZINC000274225049    0.0900
     36 H36       -13.6025   -0.7019   57.9882 H       1  ZINC000274225049    0.0900
     37 H37       -13.7622   -1.1407   60.6774 H       1  ZINC000274225049    0.1400
     38 H38       -15.1059   -0.3963   59.7590 H       1  ZINC000274225049    0.1400
     39 H39       -15.9947   -4.2059   58.3250 H       1  ZINC000274225049    0.1400
     40 H40       -14.3084   -4.3955   58.9102 H       1  ZINC000274225049    0.1400
     41 H41        -8.7145   -2.4119   52.2562 H       1  ZINC000274225049    0.1300
     42 H42        -6.3868   -2.3797   51.5396 H       1  ZINC000274225049    0.1300
     43 H43        -5.1455   -0.2644   51.3844 H       1  ZINC000274225049    0.1300
     44 H44        -6.2115    1.8530   51.9434 H       1  ZINC000274225049    0.1300
     45 H45       -10.5547    3.0572   53.4161 H       1  ZINC000274225049    0.1300
     46 H46       -11.7958    0.9422   53.5657 H       1  ZINC000274225049    0.1300
@<TRIPOS>BOND
     1     1     2    1
     2     1    28    1
     3     1    29    1
     4     1    30    1
     5     2     3    1
     6     2     4    1
     7     2    17    1
     8     4     5   am
     9     4    31    1
    10     5     6    2
    11     5     7   am
    12     7     8    1
    13     7    32    1
    14     8     9    1
    15     8    33    1
    16     8    34    1
    17     9    10    1
    18     9    16    1
    19     9    11    1
    20    11    12    1
    21    11    35    1
    22    11    36    1
    23    12    13    1
    24    12    37    1
    25    12    38    1
    26    13    14    2
    27    13    15    2
    28    13    16    1
    29    16    39    1
    30    16    40    1
    31    17    27   ar
    32    17    18   ar
    33    18    23   ar
    34    18    19   ar
    35    19    20   ar
    36    19    41    1
    37    20    21   ar
    38    20    42    1
    39    21    22   ar
    40    21    43    1
    41    22    23   ar
    42    22    44    1
    43    23    24   ar
    44    24    25    1
    45    24    26   ar
    46    26    27   ar
    47    26    45    1
    48    27    46    1
@<TRIPOS>SUBSTRUCTURE
     1 ZINC000274225049        1 TEMP              0 ****  ****    0 ROOT


##########                                Name:    ZINC000906038034
##########                DOCK_Rotatable_Bonds:                   5
##########                         Heavy_Atoms:                  23
##########                    Molecular_Weight:             387.428
##########                DOCK_Rotatable_Bonds:                   5
##########                       Formal_Charge:         -0.00999987
##########                     HBond_Acceptors:                  12
##########                        HBond_Donors:                   0
##########                         Heavy_Atoms:                  23
##########                          Grid_Score:          -29.543308
##########                     Grid_vdw_energy:          -29.325796
##########                      Grid_es_energy:           -0.217512
##########           Internal_energy_repulsive:            2.684798

@<TRIPOS>MOLECULE
ZINC000906038034
 35 36 1 0 0
SMALL
USER_CHARGES


@<TRIPOS>ATOM
      1 C1        -11.1307    0.7683   64.0945 C.3     1  ZINC000906038034    0.1000
      2 N2        -11.5192    0.2283   62.7892 N.pl3   1  ZINC000906038034   -0.3700
      3 C3        -10.9453    0.5301   61.6043 C.2     1  ZINC000906038034    0.0600
      4 C4        -11.5832   -0.1686   60.6410 C.2     1  ZINC000906038034   -0.2500
      5 C5        -12.5936   -0.9338   61.2595 C.2     1  ZINC000906038034    0.1200
      6 C6        -13.5350   -1.8473   60.5765 C.2     1  ZINC000906038034    0.1500
      7 N7        -13.5772   -2.0684   59.2939 N.2     1  ZINC000906038034   -0.4300
      8 C8        -14.4840   -2.9160   58.8637 C.2     1  ZINC000906038034    0.0600
      9 C9        -14.6328   -3.2559   57.4032 C.3     1  ZINC000906038034   -0.5300
     10 S10       -13.6579   -4.7381   57.0249 S.o2    1  ZINC000906038034    2.4200
     11 O11       -12.3647   -4.5870   57.5940 O.2     1  ZINC000906038034   -0.9100
     12 O12       -14.4309   -5.8843   57.3534 O.2     1  ZINC000906038034   -0.9200
     13 C13       -13.5102   -4.6389   55.2196 C.3     1  ZINC000906038034   -0.6100
     14 C14       -12.5295   -3.5246   54.8486 C.3     1  ZINC000906038034   -0.4500
     15 S15       -12.3953   -3.4137   53.0429 S.o     1  ZINC000906038034    1.3300
     16 O16       -11.8454   -4.6211   52.5339 O.2     1  ZINC000906038034   -0.7600
     17 C17       -11.2096   -2.0617   52.8043 C.3     1  ZINC000906038034    0.1200
     18 F18        -9.9951   -2.3932   53.4144 F       1  ZINC000906038034   -0.1900
     19 F19       -11.0037   -1.8583   51.4355 F       1  ZINC000906038034   -0.1700
     20 F20       -11.7158   -0.8908   53.3787 F       1  ZINC000906038034   -0.1600
     21 C21       -15.2661   -3.4587   59.8020 C.2     1  ZINC000906038034   -0.2300
     22 S22       -14.7747   -2.8169   61.3683 S.3     1  ZINC000906038034    0.1600
     23 N23       -12.5462   -0.6949   62.5548 N.2     1  ZINC000906038034   -0.2400
     24 H24       -10.3678    0.1295   64.5395 H       1  ZINC000906038034    0.0800
     25 H25       -10.7326    1.7751   63.9673 H       1  ZINC000906038034    0.0900
     26 H26       -12.0026    0.8022   64.7478 H       1  ZINC000906038034    0.0900
     27 H27       -10.1208    1.2113   61.4537 H       1  ZINC000906038034    0.1800
     28 H28       -11.3599   -0.1453   59.5846 H       1  ZINC000906038034    0.1600
     29 H29       -15.6826   -3.4444   57.1791 H       1  ZINC000906038034    0.1500
     30 H30       -14.2762   -2.4223   56.7981 H       1  ZINC000906038034    0.1600
     31 H31       -13.1436   -5.5895   54.8322 H       1  ZINC000906038034    0.1500
     32 H32       -14.4867   -4.4225   54.7865 H       1  ZINC000906038034    0.1500
     33 H33       -12.8908   -2.5758   55.2451 H       1  ZINC000906038034    0.1600
     34 H34       -11.5503   -3.7463   55.2729 H       1  ZINC000906038034    0.1300
     35 H35       -16.0596   -4.1710   59.6304 H       1  ZINC000906038034    0.1900
@<TRIPOS>BOND
     1     1     2    1
     2     1    24    1
     3     1    25    1
     4     1    26    1
     5     2    23    1
     6     2     3    1
     7     3     4    2
     8     3    27    1
     9     4     5    1
    10     4    28    1
    11     5     6    1
    12     5    23    2
    13     6    22    1
    14     6     7    2
    15     7     8    1
    16     8     9    1
    17     8    21    2
    18     9    10    1
    19     9    29    1
    20     9    30    1
    21    10    11    2
    22    10    12    2
    23    10    13    1
    24    13    14    1
    25    13    31    1
    26    13    32    1
    27    14    15    1
    28    14    33    1
    29    14    34    1
    30    15    16    2
    31    15    17    1
    32    17    18    1
    33    17    19    1
    34    17    20    1
    35    21    22    1
    36    21    35    1
@<TRIPOS>SUBSTRUCTURE
     1 ZINC000906038034        1 TEMP              0 ****  ****    0 ROOT


##########                                Name:    ZINC001064463188
##########                DOCK_Rotatable_Bonds:                   6
##########                         Heavy_Atoms:                  25
##########                    Molecular_Weight:             342.441
##########                DOCK_Rotatable_Bonds:                   6
##########                       Formal_Charge:          -0.0100004
##########                     HBond_Acceptors:                   6
##########                        HBond_Donors:                   0
##########                         Heavy_Atoms:                  25
##########                          Grid_Score:          -29.540140
##########                     Grid_vdw_energy:          -29.918131
##########                      Grid_es_energy:            0.377990
##########           Internal_energy_repulsive:           16.007164

@<TRIPOS>MOLECULE
ZINC001064463188
 51 54 1 0 0
SMALL
USER_CHARGES


@<TRIPOS>ATOM
      1 C1         -7.6463    3.1597   53.1533 C.3     1  ZINC001064463188    0.0400
      2 O2         -6.7009    2.1423   52.8168 O.3     1  ZINC001064463188   -0.3000
      3 C3         -7.1855    0.8916   52.6237 C.ar    1  ZINC001064463188    0.3900
      4 C4         -6.3561   -0.1218   52.1459 C.ar    1  ZINC001064463188   -0.2800
      5 C5         -6.8928   -1.3827   51.9638 C.ar    1  ZINC001064463188    0.2000
      6 N6         -8.1699   -1.5898   52.2464 N.ar    1  ZINC001064463188   -0.5800
      7 C7         -8.9343   -0.6070   52.6993 C.ar    1  ZINC001064463188    0.5300
      8 N8        -10.2644   -0.8627   52.9839 N.3     1  ZINC001064463188   -0.4500
      9 C9        -11.1446   -0.0921   52.1087 C.3     1  ZINC001064463188    0.0700
     10 C10       -12.2963    0.5145   52.9192 C.3     1  ZINC001064463188   -0.1200
     11 C11       -13.2355   -0.5484   53.4566 C.3     1  ZINC001064463188    0.1400
     12 H12       -14.0056   -0.0858   54.0739 H       1  ZINC001064463188    0.0900
     13 C13       -13.8849   -1.3505   52.3270 C.3     1  ZINC001064463188   -0.1300
     14 C14       -12.9114   -2.5168   52.0823 C.3     1  ZINC001064463188   -0.1300
     15 C15       -12.0153   -2.5602   53.3249 C.3     1  ZINC001064463188    0.1200
     16 H16       -12.1045   -3.5329   53.8086 H       1  ZINC001064463188    0.0900
     17 C17       -10.5502   -2.3207   52.9285 C.3     1  ZINC001064463188    0.0600
     18 N18       -12.4249   -1.4945   54.2783 N.am    1  ZINC001064463188   -0.6000
     19 C19       -12.1245   -1.4103   55.5895 C.2     1  ZINC001064463188    0.5800
     20 O20       -12.5316   -0.4721   56.2476 O.2     1  ZINC001064463188   -0.5400
     21 C21       -11.3041   -2.4531   56.2246 C.2     1  ZINC001064463188   -0.2200
     22 C22       -11.8582   -3.3038   57.0836 C.2     1  ZINC001064463188    0.0000
     23 C23       -11.0177   -4.3721   57.7343 C.3     1  ZINC001064463188   -0.1300
     24 C24       -13.3265   -3.1994   57.4065 C.3     1  ZINC001064463188   -0.1200
     25 C25       -14.3160   -3.7694   56.3882 C.3     1  ZINC001064463188   -0.1900
     26 C26       -14.0766   -4.4973   57.7125 C.3     1  ZINC001064463188   -0.1600
     27 N27        -8.4555    0.6130   52.8921 N.ar    1  ZINC001064463188   -0.5900
     28 H28        -8.1506    2.8941   54.0825 H       1  ZINC001064463188    0.0600
     29 H29        -7.1278    4.1100   53.2799 H       1  ZINC001064463188    0.1000
     30 H30        -8.3819    3.2508   52.3540 H       1  ZINC001064463188    0.0600
     31 H31        -5.3177    0.0738   51.9227 H       1  ZINC001064463188    0.1500
     32 H32        -6.2774   -2.1898   51.5947 H       1  ZINC001064463188    0.1800
     33 H33       -10.5744    0.7079   51.6366 H       1  ZINC001064463188    0.0800
     34 H34       -11.5510   -0.7468   51.3378 H       1  ZINC001064463188    0.0600
     35 H35       -11.8827    1.0777   53.7557 H       1  ZINC001064463188    0.0800
     36 H36       -12.8595    1.1947   52.2801 H       1  ZINC001064463188    0.0800
     37 H37       -14.8597   -1.7263   52.6378 H       1  ZINC001064463188    0.0800
     38 H38       -13.9795   -0.7382   51.4302 H       1  ZINC001064463188    0.0900
     39 H39       -13.4607   -3.4527   51.9795 H       1  ZINC001064463188    0.0800
     40 H40       -12.3128   -2.3291   51.1909 H       1  ZINC001064463188    0.0800
     41 H41       -10.3856   -2.6710   51.9096 H       1  ZINC001064463188    0.0700
     42 H42        -9.8942   -2.8593   53.6123 H       1  ZINC001064463188    0.0900
     43 H43       -10.2518   -2.5279   55.9932 H       1  ZINC001064463188    0.1200
     44 H44       -10.5994   -3.9887   58.6650 H       1  ZINC001064463188    0.0800
     45 H45       -11.6377   -5.2432   57.9462 H       1  ZINC001064463188    0.0800
     46 H46       -10.2082   -4.6571   57.0623 H       1  ZINC001064463188    0.0700
     47 H47       -13.6252   -2.3047   57.9527 H       1  ZINC001064463188    0.1400
     48 H48       -15.2660   -3.2495   56.2642 H       1  ZINC001064463188    0.1000
     49 H49       -13.9050   -4.2198   55.4848 H       1  ZINC001064463188    0.1000
     50 H50       -13.5081   -5.4267   57.6802 H       1  ZINC001064463188    0.0900
     51 H51       -14.8691   -4.4564   58.4596 H       1  ZINC001064463188    0.1000
@<TRIPOS>BOND
     1     1     2    1
     2     1    28    1
     3     1    29    1
     4     1    30    1
     5     2     3    1
     6     3    27   ar
     7     3     4   ar
     8     4     5   ar
     9     4    31    1
    10     5     6   ar
    11     5    32    1
    12     6     7   ar
    13     7     8    1
    14     7    27   ar
    15     8    17    1
    16     8     9    1
    17     9    10    1
    18     9    33    1
    19     9    34    1
    20    10    11    1
    21    10    35    1
    22    10    36    1
    23    11    12    1
    24    11    18    1
    25    11    13    1
    26    13    14    1
    27    13    37    1
    28    13    38    1
    29    14    15    1
    30    14    39    1
    31    14    40    1
    32    15    16    1
    33    15    17    1
    34    15    18    1
    35    17    41    1
    36    17    42    1
    37    18    19   am
    38    19    20    2
    39    19    21    1
    40    21    22    2
    41    21    43    1
    42    22    23    1
    43    22    24    1
    44    23    44    1
    45    23    45    1
    46    23    46    1
    47    24    26    1
    48    24    25    1
    49    24    47    1
    50    25    26    1
    51    25    48    1
    52    25    49    1
    53    26    50    1
    54    26    51    1
@<TRIPOS>SUBSTRUCTURE
     1 ZINC001064463188        1 TEMP              0 ****  ****    0 ROOT


##########                                Name:    ZINC000534799364
##########                DOCK_Rotatable_Bonds:                   4
##########                         Heavy_Atoms:                  29
##########                    Molecular_Weight:             391.491
##########                DOCK_Rotatable_Bonds:                   4
##########                       Formal_Charge:           0.0199998
##########                     HBond_Acceptors:                   6
##########                        HBond_Donors:                   0
##########                         Heavy_Atoms:                  29
##########                          Grid_Score:          -29.540033
##########                     Grid_vdw_energy:          -29.218735
##########                      Grid_es_energy:           -0.321298
##########           Internal_energy_repulsive:           12.507058

@<TRIPOS>MOLECULE
ZINC000534799364
 55 59 1 0 0
SMALL
USER_CHARGES


@<TRIPOS>ATOM
      1 C1         -8.9627    0.6293   59.1354 C.3     1  ZINC000534799364   -0.1100
      2 C2         -9.7717   -0.0953   60.1801 C.ar    1  ZINC000534799364   -0.0200
      3 C3         -9.6312    0.2095   61.5238 C.ar    1  ZINC000534799364   -0.1700
      4 C4        -10.3899   -0.4759   62.4547 C.ar    1  ZINC000534799364    0.1000
      5 N5        -11.2407   -1.4108   62.0797 N.ar    1  ZINC000534799364   -0.4800
      6 C6        -11.4053   -1.7320   60.8119 C.ar    1  ZINC000534799364    0.0800
      7 C7        -10.6836   -1.0842   59.8177 C.ar    1  ZINC000534799364    0.0300
      8 N8        -10.8611   -1.4271   58.4751 N.3     1  ZINC000534799364   -0.5000
      9 C9        -12.1270   -0.8896   57.9572 C.3     1  ZINC000534799364    0.0600
     10 C10       -12.2461   -1.2180   56.4672 C.3     1  ZINC000534799364    0.0600
     11 N11       -12.1809   -2.6744   56.2824 N.3     1  ZINC000534799364   -0.5300
     12 C12       -12.3676   -3.0349   54.8706 C.3     1  ZINC000534799364    0.1400
     13 C13       -11.6742   -2.0212   53.9974 C.2     1  ZINC000534799364    0.1100
     14 N14       -10.3805   -1.8771   53.8698 N.2     1  ZINC000534799364   -0.2800
     15 N15       -10.1431   -0.8313   52.9697 N.pl3   1  ZINC000534799364   -0.3100
     16 C16        -8.8857   -0.3623   52.5626 C.ar    1  ZINC000534799364    0.1500
     17 C17        -8.5462    0.9704   52.7521 C.ar    1  ZINC000534799364   -0.1000
     18 C18        -7.3075    1.4304   52.3505 C.ar    1  ZINC000534799364   -0.1300
     19 C19        -6.4043    0.5632   51.7591 C.ar    1  ZINC000534799364    0.1000
     20 F20        -5.1929    1.0149   51.3673 F       1  ZINC000534799364   -0.1300
     21 C21        -6.7411   -0.7667   51.5693 C.ar    1  ZINC000534799364   -0.1300
     22 C22        -7.9767   -1.2316   51.9748 C.ar    1  ZINC000534799364   -0.0800
     23 C23       -11.3430   -0.3526   52.5616 C.2     1  ZINC000534799364    0.0500
     24 C24       -12.3052   -1.0746   53.1778 C.2     1  ZINC000534799364   -0.2200
     25 C25       -13.6753   -0.5853   52.7601 C.3     1  ZINC000534799364   -0.0400
     26 C26       -13.4310    0.8084   52.1416 C.3     1  ZINC000534799364   -0.1200
     27 C27       -11.9658    0.6942   51.6638 C.3     1  ZINC000534799364   -0.0500
     28 C28       -10.9150   -3.2119   56.8003 C.3     1  ZINC000534799364    0.0600
     29 C29       -10.7959   -2.8835   58.2903 C.3     1  ZINC000534799364    0.0600
     30 H30        -9.5443    1.4611   58.7378 H       1  ZINC000534799364    0.0800
     31 H31        -8.0455    1.0096   59.5852 H       1  ZINC000534799364    0.0600
     32 H32        -8.7132   -0.0585   58.3275 H       1  ZINC000534799364    0.0800
     33 H33        -8.9368    0.9734   61.8409 H       1  ZINC000534799364    0.1400
     34 H34       -10.2839   -0.2423   63.5039 H       1  ZINC000534799364    0.1600
     35 H35       -12.1116   -2.5037   60.5433 H       1  ZINC000534799364    0.1500
     36 H36       -12.9608   -1.3394   58.4965 H       1  ZINC000534799364    0.0500
     37 H37       -12.1460    0.1916   58.0940 H       1  ZINC000534799364    0.0800
     38 H38       -13.1975   -0.8455   56.0875 H       1  ZINC000534799364    0.0900
     39 H39       -11.4276   -0.7455   55.9241 H       1  ZINC000534799364    0.0500
     40 H40       -11.9432   -4.0222   54.6885 H       1  ZINC000534799364    0.1000
     41 H41       -13.4321   -3.0483   54.6369 H       1  ZINC000534799364    0.0500
     42 H42        -9.2506    1.6471   53.2130 H       1  ZINC000534799364    0.1400
     43 H43        -7.0433    2.4672   52.4974 H       1  ZINC000534799364    0.1500
     44 H44        -6.0355   -1.4414   51.1075 H       1  ZINC000534799364    0.1500
     45 H45        -8.2389   -2.2688   51.8269 H       1  ZINC000534799364    0.1400
     46 H46       -14.1080   -1.2578   52.0195 H       1  ZINC000534799364    0.0800
     47 H47       -14.3297   -0.5052   53.6281 H       1  ZINC000534799364    0.0700
     48 H48       -14.1009    0.9838   51.3000 H       1  ZINC000534799364    0.0800
     49 H49       -13.5378    1.5915   52.8923 H       1  ZINC000534799364    0.0800
     50 H50       -11.4522    1.6479   51.7851 H       1  ZINC000534799364    0.0800
     51 H51       -11.9308    0.3739   50.6225 H       1  ZINC000534799364    0.0900
     52 H52       -10.8960   -4.2932   56.6635 H       1  ZINC000534799364    0.0900
     53 H53       -10.0813   -2.7621   56.2610 H       1  ZINC000534799364    0.0500
     54 H54        -9.8444   -3.2561   58.6700 H       1  ZINC000534799364    0.0800
     55 H55       -11.6145   -3.3559   58.8333 H       1  ZINC000534799364    0.0500
@<TRIPOS>BOND
     1     1     2    1
     2     1    30    1
     3     1    31    1
     4     1    32    1
     5     2     7   ar
     6     2     3   ar
     7     3     4   ar
     8     3    33    1
     9     4     5   ar
    10     4    34    1
    11     5     6   ar
    12     6     7   ar
    13     6    35    1
    14     7     8    1
    15     8    29    1
    16     8     9    1
    17     9    10    1
    18     9    36    1
    19     9    37    1
    20    10    11    1
    21    10    38    1
    22    10    39    1
    23    11    12    1
    24    11    28    1
    25    12    13    1
    26    12    40    1
    27    12    41    1
    28    13    24    1
    29    13    14    2
    30    14    15    1
    31    15    16    1
    32    15    23    1
    33    16    22   ar
    34    16    17   ar
    35    17    18   ar
    36    17    42    1
    37    18    19   ar
    38    18    43    1
    39    19    20    1
    40    19    21   ar
    41    21    22   ar
    42    21    44    1
    43    22    45    1
    44    23    27    1
    45    23    24    2
    46    24    25    1
    47    25    26    1
    48    25    46    1
    49    25    47    1
    50    26    27    1
    51    26    48    1
    52    26    49    1
    53    27    50    1
    54    27    51    1
    55    28    29    1
    56    28    52    1
    57    28    53    1
    58    29    54    1
    59    29    55    1
@<TRIPOS>SUBSTRUCTURE
     1 ZINC000534799364        1 TEMP              0 ****  ****    0 ROOT


##########                                Name:    ZINC000286156371
##########                DOCK_Rotatable_Bonds:                   7
##########                         Heavy_Atoms:                  25
##########                    Molecular_Weight:             350.418
##########                DOCK_Rotatable_Bonds:                   7
##########                       Formal_Charge:          0.00999908
##########                     HBond_Acceptors:                   8
##########                        HBond_Donors:                   2
##########                         Heavy_Atoms:                  25
##########                          Grid_Score:          -29.524914
##########                     Grid_vdw_energy:          -28.730606
##########                      Grid_es_energy:           -0.794307
##########           Internal_energy_repulsive:           11.585636

@<TRIPOS>MOLECULE
ZINC000286156371
 51 53 1 0 0
SMALL
USER_CHARGES


@<TRIPOS>ATOM
      1 C1          0.9087    0.1218   47.3591 C.3     1  <0>        -0.1800
      2 C2          0.5323    1.5312   47.8207 C.3     1  <0>         0.1400
      3 C3          1.7924    2.3953   47.9001 C.3     1  <0>        -0.1800
      4 C4         -0.4483    2.1498   46.8225 C.3     1  <0>        -0.1400
      5 O5         -0.0900    1.4613   49.1307 O.3     1  <0>        -0.3600
      6 C6          0.7317    1.4066   50.1957 C.2     1  <0>         0.6800
      7 O7          1.4363    0.4320   50.3700 O.2     1  <0>        -0.5600
      8 N8          0.7729    2.4327   51.0685 N.am    1  <0>        -0.5800
      9 C9          1.6225    2.5040   52.2713 C.3     1  <0>         0.0700
     10 C10         1.7828    4.0186   52.5545 C.3     1  <0>         0.0900
     11 H11         1.9982    4.1984   53.6077 H       1  <0>         0.0900
     12 O12         2.7940    4.5909   51.7226 O.3     1  <0>        -0.5500
     13 C13         0.3782    4.5569   52.1742 C.3     1  <0>        -0.1200
     14 C14        -0.0170    3.6692   50.9754 C.3     1  <0>         0.1500
     15 H15         0.2041    4.1869   50.0420 H       1  <0>         0.1100
     16 C16        -1.4862    3.3405   51.0434 C.2     1  <0>         0.5200
     17 O17        -2.2642    3.8810   50.2860 O.2     1  <0>        -0.4900
     18 N18        -1.9355    2.4460   51.9458 N.am    1  <0>        -0.6300
     19 C19        -3.3016    2.1390   52.0080 C.2     1  <0>         0.3000
     20 N20        -3.8719    1.0576   51.5266 N.2     1  <0>        -0.3200
     21 N21        -5.2406    1.1330   51.7943 N.pl3   1  <0>        -0.3600
     22 C22        -6.2727    0.1519   51.4453 C.3     1  <0>         0.1400
     23 C23        -7.5197    0.4242   52.2931 C.3     1  <0>        -0.1400
     24 C24        -7.8959    1.9053   52.1904 C.3     1  <0>        -0.1300
     25 C25        -6.8374    2.7460   52.9163 C.3     1  <0>        -0.0600
     26 C26        -5.4756    2.2931   52.4503 C.2     1  <0>         0.0900
     27 C27        -4.2993    2.9317   52.6018 C.2     1  <0>        -0.2600
     28 H28         1.6073   -0.3190   48.0702 H       1  <0>         0.0900
     29 H29         0.0110   -0.4938   47.3025 H       1  <0>         0.0600
     30 H30         1.3759    0.1742   46.3757 H       1  <0>         0.0700
     31 H31         2.2596    2.4477   46.9167 H       1  <0>         0.0700
     32 H32         1.5243    3.3994   48.2289 H       1  <0>         0.0600
     33 H33         2.4911    1.9545   48.6113 H       1  <0>         0.0900
     34 H34        -1.3460    1.5342   46.7659 H       1  <0>         0.0700
     35 H35        -0.7164    3.1539   47.1513 H       1  <0>         0.0700
     36 H36         0.0189    2.2022   45.8390 H       1  <0>         0.0800
     37 H37         1.1330    2.0108   53.1112 H       1  <0>         0.0800
     38 H38         2.5940    2.0495   52.0772 H       1  <0>         0.0900
     39 H39         2.4773    5.3062   51.1542 H       1  <0>         0.3900
     40 H40        -0.3208    4.4287   53.0007 H       1  <0>         0.1000
     41 H41         0.4345    5.6033   51.8742 H       1  <0>         0.1100
     42 H42        -1.3134    2.0146   52.5523 H       1  <0>         0.4200
     43 H43        -6.5221    0.2443   50.3883 H       1  <0>         0.0800
     44 H44        -5.9046   -0.8536   51.6493 H       1  <0>         0.0900
     45 H45        -8.3463   -0.1863   51.9297 H       1  <0>         0.0900
     46 H46        -7.3134    0.1734   53.3336 H       1  <0>         0.0800
     47 H47        -7.9374    2.1986   51.1414 H       1  <0>         0.0700
     48 H48        -8.8694    2.0667   52.6534 H       1  <0>         0.0800
     49 H49        -6.9767    3.8001   52.6760 H       1  <0>         0.0900
     50 H50        -6.9256    2.5988   53.9928 H       1  <0>         0.0900
     51 H51        -4.1499    3.8835   53.0899 H       1  <0>         0.1700
@<TRIPOS>BOND
     1     1     2    1
     2     1    28    1
     3     1    29    1
     4     1    30    1
     5     2     3    1
     6     2     4    1
     7     2     5    1
     8     3    31    1
     9     3    32    1
    10     3    33    1
    11     4    34    1
    12     4    35    1
    13     4    36    1
    14     5     6    1
    15     6     7    2
    16     6     8   am
    17     8    14    1
    18     8     9    1
    19     9    10    1
    20     9    37    1
    21     9    38    1
    22    10    11    1
    23    10    12    1
    24    10    13    1
    25    12    39    1
    26    13    14    1
    27    13    40    1
    28    13    41    1
    29    14    15    1
    30    14    16    1
    31    16    17    2
    32    16    18   am
    33    18    19    1
    34    18    42    1
    35    19    27    1
    36    19    20    2
    37    20    21    1
    38    21    26    1
    39    21    22    1
    40    22    23    1
    41    22    43    1
    42    22    44    1
    43    23    24    1
    44    23    45    1
    45    23    46    1
    46    24    25    1
    47    24    47    1
    48    24    48    1
    49    25    26    1
    50    25    49    1
    51    25    50    1
    52    26    27    2
    53    27    51    1
@<TRIPOS>SUBSTRUCTURE
     1 <0>         1 TEMP              0 ****  ****    0 ROOT


##########                                Name:    ZINC000579444893
##########                DOCK_Rotatable_Bonds:                   8
##########                         Heavy_Atoms:                  26
##########                    Molecular_Weight:             365.494
##########                DOCK_Rotatable_Bonds:                   8
##########                       Formal_Charge:         -0.00999993
##########                     HBond_Acceptors:                   7
##########                        HBond_Donors:                   1
##########                         Heavy_Atoms:                  26
##########                          Grid_Score:          -29.517639
##########                     Grid_vdw_energy:          -29.001532
##########                      Grid_es_energy:           -0.516107
##########           Internal_energy_repulsive:           26.367191

@<TRIPOS>MOLECULE
ZINC000579444893
 58 60 1 0 0
SMALL
USER_CHARGES


@<TRIPOS>ATOM
      1 C1         -9.4541    2.1754   53.9346 C.3     1  ZINC000579444893   -0.1600
      2 C2         -9.3535    0.6743   53.6562 C.3     1  ZINC000579444893    0.1700
      3 H3         -8.8204    0.1881   54.4731 H       1  ZINC000579444893    0.0900
      4 N4        -10.6997    0.1070   53.5457 N.am    1  ZINC000579444893   -0.7400
      5 C5        -11.3540   -0.2964   54.6526 C.2     1  ZINC000579444893    0.7100
      6 O6        -10.8264   -0.1908   55.7431 O.2     1  ZINC000579444893   -0.5900
      7 N7        -12.5931   -0.8168   54.5511 N.am    1  ZINC000579444893   -0.6300
      8 C8        -13.2294   -0.9423   53.2376 C.3     1  ZINC000579444893    0.0800
      9 C9        -13.3036   -1.2569   55.7543 C.3     1  ZINC000579444893    0.1100
     10 C10       -12.7347   -2.5986   56.2204 C.3     1  ZINC000579444893    0.0600
     11 H11       -11.6474   -2.5426   56.2713 H       1  ZINC000579444893    0.1000
     12 C12       -13.1577   -3.7160   55.2437 C.3     1  ZINC000579444893   -0.1600
     13 C13       -13.4397   -4.9157   56.1861 C.3     1  ZINC000579444893    0.0800
     14 H14       -12.5165   -5.4336   56.4459 H       1  ZINC000579444893    0.1000
     15 F15       -14.3616   -5.7978   55.6122 F       1  ZINC000579444893   -0.2000
     16 C16       -14.0451   -4.2064   57.4230 C.3     1  ZINC000579444893    0.0200
     17 N17       -13.2818   -2.9422   57.5459 N.3     1  ZINC000579444893   -0.5000
     18 C18       -14.1330   -1.8611   58.0602 C.3     1  ZINC000579444893    0.1000
     19 C19       -14.7784   -2.3000   59.3493 C.2     1  ZINC000579444893    0.0800
     20 C20       -14.1336   -2.6325   60.4915 C.2     1  ZINC000579444893   -0.2500
     21 C21       -15.0971   -2.9790   61.4445 C.2     1  ZINC000579444893    0.0400
     22 N22       -16.2780   -2.8588   60.8940 N.2     1  ZINC000579444893   -0.2900
     23 N23       -16.1032   -2.4263   59.5732 N.pl3   1  ZINC000579444893   -0.3700
     24 C24       -17.1698   -2.1660   58.6032 C.3     1  ZINC000579444893    0.0900
     25 C25        -8.5956    0.4481   52.3465 C.3     1  ZINC000579444893   -0.1000
     26 C26        -7.1228    0.9065   52.4864 C.3     1  ZINC000579444893   -0.1200
     27 C27        -6.4035    0.0859   51.3871 C.3     1  ZINC000579444893   -0.1300
     28 C28        -7.1010   -1.2896   51.4245 C.3     1  ZINC000579444893   -0.1300
     29 C29        -8.4947   -1.0593   52.0345 C.3     1  ZINC000579444893   -0.1200
     30 H30       -10.0718    2.3407   54.8172 H       1  ZINC000579444893    0.0600
     31 H31        -8.4569    2.5803   54.1080 H       1  ZINC000579444893    0.0700
     32 H32        -9.9047    2.6747   53.0769 H       1  ZINC000579444893    0.0500
     33 H33       -11.1201    0.0217   52.6757 H       1  ZINC000579444893    0.4000
     34 H34       -12.9093   -1.8714   52.7661 H       1  ZINC000579444893    0.0600
     35 H35       -14.3128   -0.9504   53.3579 H       1  ZINC000579444893    0.0800
     36 H36       -12.9397   -0.0985   52.6114 H       1  ZINC000579444893    0.0700
     37 H37       -13.1771   -0.5151   56.5428 H       1  ZINC000579444893    0.0900
     38 H38       -14.3639   -1.3706   55.5290 H       1  ZINC000579444893    0.0900
     39 H39       -14.0590   -3.4323   54.7006 H       1  ZINC000579444893    0.1100
     40 H40       -12.3480   -3.9507   54.5528 H       1  ZINC000579444893    0.0800
     41 H41       -15.1028   -3.9983   57.2613 H       1  ZINC000579444893    0.0600
     42 H42       -13.9098   -4.8178   58.3151 H       1  ZINC000579444893    0.0900
     43 H43       -13.5249   -0.9749   58.2416 H       1  ZINC000579444893    0.1100
     44 H44       -14.9060   -1.6277   57.3279 H       1  ZINC000579444893    0.0500
     45 H45       -13.0640   -2.6309   60.6409 H       1  ZINC000579444893    0.1500
     46 H46       -14.9002   -3.2922   62.4591 H       1  ZINC000579444893    0.1800
     47 H47       -17.4429   -1.1113   58.6378 H       1  ZINC000579444893    0.0800
     48 H48       -16.8202   -2.4182   57.6022 H       1  ZINC000579444893    0.0800
     49 H49       -18.0402   -2.7749   58.8482 H       1  ZINC000579444893    0.0900
     50 H50        -9.0852    0.9752   51.5275 H       1  ZINC000579444893    0.0800
     51 H51        -7.0307    1.9752   52.2931 H       1  ZINC000579444893    0.0700
     52 H52        -6.7324    0.6562   53.4728 H       1  ZINC000579444893    0.0700
     53 H53        -6.5369    0.5549   50.4122 H       1  ZINC000579444893    0.0700
     54 H54        -5.3437   -0.0173   51.6200 H       1  ZINC000579444893    0.0700
     55 H55        -7.1966   -1.6873   50.4142 H       1  ZINC000579444893    0.0600
     56 H56        -6.5311   -1.9805   52.0458 H       1  ZINC000579444893    0.0600
     57 H57        -8.6012   -1.6383   52.9517 H       1  ZINC000579444893    0.0600
     58 H58        -9.2668   -1.3452   51.3202 H       1  ZINC000579444893    0.0600
@<TRIPOS>BOND
     1     1     2    1
     2     1    30    1
     3     1    31    1
     4     1    32    1
     5     2     3    1
     6     2     4    1
     7     2    25    1
     8     4     5   am
     9     4    33    1
    10     5     6    2
    11     5     7   am
    12     7     8    1
    13     7     9    1
    14     8    34    1
    15     8    35    1
    16     8    36    1
    17     9    10    1
    18     9    37    1
    19     9    38    1
    20    10    11    1
    21    10    17    1
    22    10    12    1
    23    12    13    1
    24    12    39    1
    25    12    40    1
    26    13    14    1
    27    13    15    1
    28    13    16    1
    29    16    17    1
    30    16    41    1
    31    16    42    1
    32    17    18    1
    33    18    19    1
    34    18    43    1
    35    18    44    1
    36    19    23    1
    37    19    20    2
    38    20    21    1
    39    20    45    1
    40    21    22    2
    41    21    46    1
    42    22    23    1
    43    23    24    1
    44    24    47    1
    45    24    48    1
    46    24    49    1
    47    25    29    1
    48    25    26    1
    49    25    50    1
    50    26    27    1
    51    26    51    1
    52    26    52    1
    53    27    28    1
    54    27    53    1
    55    27    54    1
    56    28    29    1
    57    28    55    1
    58    28    56    1
    59    29    57    1
    60    29    58    1
@<TRIPOS>SUBSTRUCTURE
     1 ZINC000579444893        1 TEMP              0 ****  ****    0 ROOT


##########                                Name:    ZINC001328997126
##########                DOCK_Rotatable_Bonds:                   7
##########                         Heavy_Atoms:                  26
##########                    Molecular_Weight:             388.488
##########                DOCK_Rotatable_Bonds:                   7
##########                       Formal_Charge:           0.0299993
##########                     HBond_Acceptors:                  10
##########                        HBond_Donors:                   1
##########                         Heavy_Atoms:                  26
##########                          Grid_Score:          -29.491726
##########                     Grid_vdw_energy:          -30.093649
##########                      Grid_es_energy:            0.601923
##########           Internal_energy_repulsive:            8.701183

@<TRIPOS>MOLECULE
ZINC001328997126
 54 56 1 0 0
SMALL
USER_CHARGES


@<TRIPOS>ATOM
      1 C1        -11.6045   -3.7590   53.2179 C.3     1  ZINC001328997126   -0.1700
      2 C2        -11.5035   -2.7188   52.1003 C.3     1  ZINC001328997126    0.1400
      3 N3        -11.2323   -1.4020   52.6820 N.am    1  ZINC001328997126   -0.6300
      4 C4        -10.0253   -0.5949   52.4466 C.3     1  ZINC001328997126    0.0700
      5 C5        -10.2618    0.6733   53.2892 C.3     1  ZINC001328997126    0.0700
      6 H6        -10.2871    1.5567   52.6512 H       1  ZINC001328997126    0.1200
      7 C7         -9.1770    0.8167   54.3586 C.3     1  ZINC001328997126    0.0500
      8 N8         -8.2073    1.8370   53.9387 N.3     1  ZINC001328997126   -0.5300
      9 C9         -7.2239    1.2753   53.0022 C.3     1  ZINC001328997126    0.0500
     10 C10        -6.2827    2.3853   52.5283 C.3     1  ZINC001328997126    0.0600
     11 N11        -5.6147    2.9870   53.6908 N.3     1  ZINC001328997126   -0.5200
     12 C12        -4.6450    4.0075   53.2709 C.3     1  ZINC001328997126    0.0400
     13 C13        -3.4338    3.3355   52.6773 C.2     1  ZINC001328997126    0.5200
     14 O14        -2.8701    2.4522   53.2880 O.2     1  ZINC001328997126   -0.5100
     15 N15        -2.9771    3.7160   51.4677 N.am    1  ZINC001328997126   -0.7300
     16 C16        -1.7986    3.0638   50.8914 C.3     1  ZINC001328997126    0.1600
     17 H17        -1.1125    2.7765   51.6882 H       1  ZINC001328997126    0.1100
     18 C18        -2.2314    1.8137   50.1057 C.3     1  ZINC001328997126   -0.1400
     19 C19        -1.0068    1.3735   49.2627 C.3     1  ZINC001328997126   -0.5800
     20 S20        -0.3667    2.9687   48.6263 S.o2    1  ZINC001328997126    2.4000
     21 O21         1.0499    2.9857   48.7375 O.2     1  ZINC001328997126   -0.9300
     22 O22        -0.9821    3.2590   47.3788 O.2     1  ZINC001328997126   -0.9300
     23 C23        -1.0916    4.0329   49.9230 C.3     1  ZINC001328997126   -0.6100
     24 C24        -6.5981    3.5488   54.6273 C.3     1  ZINC001328997126    0.0500
     25 C25        -7.5393    2.4388   55.1012 C.3     1  ZINC001328997126    0.0600
     26 O26       -11.5634    0.4503   53.9047 O.3     1  ZINC001328997126   -0.3100
     27 C27       -12.0459   -0.7336   53.5110 C.2     1  ZINC001328997126    0.6400
     28 O28       -13.1201   -1.1671   53.8780 O.2     1  ZINC001328997126   -0.5200
     29 H29       -10.6649   -3.7920   53.7695 H       1  ZINC001328997126    0.0600
     30 H30       -12.4141   -3.4873   53.8951 H       1  ZINC001328997126    0.0600
     31 H31       -11.8063   -4.7389   52.7851 H       1  ZINC001328997126    0.0700
     32 H32       -10.6939   -2.9907   51.4231 H       1  ZINC001328997126    0.0900
     33 H33       -12.4431   -2.6859   51.5487 H       1  ZINC001328997126    0.0900
     34 H34        -9.1374   -1.1242   52.7922 H       1  ZINC001328997126    0.0900
     35 H35        -9.9343   -0.3415   51.3904 H       1  ZINC001328997126    0.0900
     36 H36        -9.6340    1.1160   55.3018 H       1  ZINC001328997126    0.0900
     37 H37        -8.6668   -0.1377   54.4889 H       1  ZINC001328997126    0.0600
     38 H38        -6.6467    0.4985   53.5037 H       1  ZINC001328997126    0.0500
     39 H39        -7.7421    0.8470   52.1443 H       1  ZINC001328997126    0.0900
     40 H40        -5.5346    1.9653   51.8561 H       1  ZINC001328997126    0.0800
     41 H41        -6.8564    3.1489   52.0031 H       1  ZINC001328997126    0.0500
     42 H42        -5.1019    4.6577   52.5249 H       1  ZINC001328997126    0.1100
     43 H43        -4.3446    4.6005   54.1348 H       1  ZINC001328997126    0.0700
     44 H44        -3.4286    4.4216   50.9788 H       1  ZINC001328997126    0.4100
     45 H45        -2.5149    1.0188   50.7955 H       1  ZINC001328997126    0.1100
     46 H46        -3.0682    2.0559   49.4504 H       1  ZINC001328997126    0.0900
     47 H47        -0.2632    0.8804   49.8888 H       1  ZINC001328997126    0.1400
     48 H48        -1.3147    0.7252   48.4423 H       1  ZINC001328997126    0.1400
     49 H49        -1.8110    4.7254   49.4859 H       1  ZINC001328997126    0.1400
     50 H50        -0.3072    4.5804   50.4455 H       1  ZINC001328997126    0.1500
     51 H51        -6.0798    3.9771   55.4853 H       1  ZINC001328997126    0.1000
     52 H52        -7.1753    4.3256   54.1258 H       1  ZINC001328997126    0.0400
     53 H53        -8.2875    2.8588   55.7734 H       1  ZINC001328997126    0.0800
     54 H54        -6.9656    1.6752   55.6265 H       1  ZINC001328997126    0.0500
@<TRIPOS>BOND
     1     1     2    1
     2     1    29    1
     3     1    30    1
     4     1    31    1
     5     2     3    1
     6     2    32    1
     7     2    33    1
     8     3    27   am
     9     3     4    1
    10     4     5    1
    11     4    34    1
    12     4    35    1
    13     5     6    1
    14     5     7    1
    15     5    26    1
    16     7     8    1
    17     7    36    1
    18     7    37    1
    19     8    25    1
    20     8     9    1
    21     9    10    1
    22     9    38    1
    23     9    39    1
    24    10    11    1
    25    10    40    1
    26    10    41    1
    27    11    12    1
    28    11    24    1
    29    12    13    1
    30    12    42    1
    31    12    43    1
    32    13    14    2
    33    13    15   am
    34    15    16    1
    35    15    44    1
    36    16    17    1
    37    16    23    1
    38    16    18    1
    39    18    19    1
    40    18    45    1
    41    18    46    1
    42    19    20    1
    43    19    47    1
    44    19    48    1
    45    20    21    2
    46    20    22    2
    47    20    23    1
    48    23    49    1
    49    23    50    1
    50    24    25    1
    51    24    51    1
    52    24    52    1
    53    25    53    1
    54    25    54    1
    55    26    27    1
    56    27    28    2
@<TRIPOS>SUBSTRUCTURE
     1 ZINC001328997126        1 TEMP              0 ****  ****    0 ROOT


##########                                Name:    ZINC001015666108
##########                DOCK_Rotatable_Bonds:                   7
##########                         Heavy_Atoms:                  25
##########                    Molecular_Weight:             346.429
##########                DOCK_Rotatable_Bonds:                   7
##########                       Formal_Charge:          -0.0199997
##########                     HBond_Acceptors:                   7
##########                        HBond_Donors:                   1
##########                         Heavy_Atoms:                  25
##########                          Grid_Score:          -29.487919
##########                     Grid_vdw_energy:          -29.104828
##########                      Grid_es_energy:           -0.383090
##########           Internal_energy_repulsive:           15.179151

@<TRIPOS>MOLECULE
ZINC001015666108
 51 53 1 0 0
SMALL
USER_CHARGES


@<TRIPOS>ATOM
      1 C1        -14.1246   -0.8394   48.0663 C.3     1  ZINC001015666108   -0.1400
      2 C2        -14.5756   -0.0189   49.2765 C.3     1  ZINC001015666108   -0.0700
      3 C3        -13.3762    0.6283   49.9196 C.2     1  ZINC001015666108   -0.0700
      4 C4        -12.5872    0.0927   50.8969 C.2     1  ZINC001015666108   -0.0900
      5 C5        -12.7567   -1.2265   51.5147 C.2     1  ZINC001015666108    0.6100
      6 O6        -13.7684   -1.8703   51.3069 O.2     1  ZINC001015666108   -0.5100
      7 N7        -11.7921   -1.7260   52.3124 N.am    1  ZINC001015666108   -0.7200
      8 C8        -11.9621   -3.0430   52.9311 C.3     1  ZINC001015666108    0.1400
      9 H9        -12.3034   -3.7668   52.1909 H       1  ZINC001015666108    0.1100
     10 C10       -10.6338   -3.5123   53.5676 C.3     1  ZINC001015666108   -0.1300
     11 C11       -10.8037   -3.1161   55.0557 C.3     1  ZINC001015666108    0.0300
     12 N12       -12.2399   -3.3886   55.3183 N.3     1  ZINC001015666108   -0.5100
     13 C13       -12.7096   -2.6477   56.4965 C.3     1  ZINC001015666108    0.1700
     14 H14       -12.9838   -1.6344   56.2030 H       1  ZINC001015666108    0.0900
     15 C15       -13.9298   -3.3543   57.0904 C.3     1  ZINC001015666108   -0.1500
     16 C16       -11.6106   -2.5923   57.5261 C.2     1  ZINC001015666108    0.1900
     17 N17       -10.9985   -1.5162   57.9580 N.2     1  ZINC001015666108   -0.4800
     18 C18       -10.1018   -1.9480   58.8626 C.2     1  ZINC001015666108    0.1800
     19 C19        -9.1451   -1.0902   59.6498 C.3     1  ZINC001015666108    0.0000
     20 C20        -8.8909    0.2157   58.8944 C.3     1  ZINC001015666108   -0.1500
     21 C21        -9.7496   -0.7774   61.0201 C.3     1  ZINC001015666108   -0.1500
     22 N22       -10.2123   -3.2408   58.9335 N.2     1  ZINC001015666108   -0.3800
     23 O23       -11.0776   -3.6303   58.1778 O.3     1  ZINC001015666108    0.1000
     24 C24       -12.9629   -2.9600   54.0985 C.3     1  ZINC001015666108    0.0300
     25 O25       -11.6244    0.9897   51.1945 O.3     1  ZINC001015666108   -0.1700
     26 C26       -11.7815    2.0798   50.4324 C.2     1  ZINC001015666108    0.0000
     27 C27       -12.8501    1.8961   49.6260 C.2     1  ZINC001015666108   -0.2200
     28 H28       -14.9921   -1.3076   47.6011 H       1  ZINC001015666108    0.0600
     29 H29       -13.6348   -0.1847   47.3456 H       1  ZINC001015666108    0.0600
     30 H30       -13.4257   -1.6105   48.3903 H       1  ZINC001015666108    0.0500
     31 H31       -15.2745    0.7523   48.9525 H       1  ZINC001015666108    0.0900
     32 H32       -15.0654   -0.6737   49.9972 H       1  ZINC001015666108    0.0700
     33 H33       -10.9852   -1.2134   52.4771 H       1  ZINC001015666108    0.4000
     34 H34       -10.5178   -4.5915   53.4667 H       1  ZINC001015666108    0.0900
     35 H35        -9.7871   -2.9892   53.1233 H       1  ZINC001015666108    0.0800
     36 H36       -10.1720   -3.7348   55.6931 H       1  ZINC001015666108    0.0800
     37 H37       -10.5799   -2.0592   55.2003 H       1  ZINC001015666108    0.0500
     38 H38       -13.6556   -4.3677   57.3839 H       1  ZINC001015666108    0.0800
     39 H39       -14.2783   -2.8046   57.9647 H       1  ZINC001015666108    0.0700
     40 H40       -14.7247   -3.3943   56.3457 H       1  ZINC001015666108    0.0800
     41 H41        -8.2032   -1.6230   59.7813 H       1  ZINC001015666108    0.1000
     42 H42        -9.8327    0.7485   58.7628 H       1  ZINC001015666108    0.0600
     43 H43        -8.1989    0.8362   59.4637 H       1  ZINC001015666108    0.0700
     44 H44        -8.4602   -0.0071   57.9182 H       1  ZINC001015666108    0.0600
     45 H45       -10.6914   -0.2446   60.8886 H       1  ZINC001015666108    0.0600
     46 H46        -9.9306   -1.7078   61.5583 H       1  ZINC001015666108    0.0600
     47 H47        -9.0576   -0.1569   61.5895 H       1  ZINC001015666108    0.0700
     48 H48       -13.3127   -1.9343   54.2154 H       1  ZINC001015666108    0.0600
     49 H49       -13.8072   -3.6244   53.9146 H       1  ZINC001015666108    0.1000
     50 H50       -11.1548    2.9591   50.4556 H       1  ZINC001015666108    0.2100
     51 H51       -13.2316    2.5959   48.8971 H       1  ZINC001015666108    0.1600
@<TRIPOS>BOND
     1     1     2    1
     2     1    28    1
     3     1    29    1
     4     1    30    1
     5     2     3    1
     6     2    31    1
     7     2    32    1
     8     3    27    1
     9     3     4    2
    10     4     5    1
    11     4    25    1
    12     5     6    2
    13     5     7   am
    14     7     8    1
    15     7    33    1
    16     8     9    1
    17     8    24    1
    18     8    10    1
    19    10    11    1
    20    10    34    1
    21    10    35    1
    22    11    12    1
    23    11    36    1
    24    11    37    1
    25    12    13    1
    26    12    24    1
    27    13    14    1
    28    13    15    1
    29    13    16    1
    30    15    38    1
    31    15    39    1
    32    15    40    1
    33    16    23    1
    34    16    17    2
    35    17    18    1
    36    18    19    1
    37    18    22    2
    38    19    20    1
    39    19    21    1
    40    19    41    1
    41    20    42    1
    42    20    43    1
    43    20    44    1
    44    21    45    1
    45    21    46    1
    46    21    47    1
    47    22    23    1
    48    24    48    1
    49    24    49    1
    50    25    26    1
    51    26    27    2
    52    26    50    1
    53    27    51    1
@<TRIPOS>SUBSTRUCTURE
     1 ZINC001015666108        1 TEMP              0 ****  ****    0 ROOT


##########                                Name:    ZINC000629379364
##########                DOCK_Rotatable_Bonds:                   5
##########                         Heavy_Atoms:                  23
##########                    Molecular_Weight:             386.261
##########                DOCK_Rotatable_Bonds:                   5
##########                       Formal_Charge:               -0.02
##########                     HBond_Acceptors:                   5
##########                        HBond_Donors:                   1
##########                         Heavy_Atoms:                  23
##########                          Grid_Score:          -29.487898
##########                     Grid_vdw_energy:          -28.342670
##########                      Grid_es_energy:           -1.145228
##########           Internal_energy_repulsive:           21.037745

@<TRIPOS>MOLECULE
ZINC000629379364
 44 46 1 0 0
SMALL
USER_CHARGES


@<TRIPOS>ATOM
      1 O1          2.2196   -0.5372   51.0600 O.co2   1  ZINC000629379364   -0.6800
      2 C2          2.5247    0.3219   50.2504 C.2     1  ZINC000629379364    0.5000
      3 O3          3.4892    0.1587   49.5227 O.co2   1  ZINC000629379364   -0.6900
      4 C4          1.7059    1.5826   50.1449 C.3     1  ZINC000629379364   -0.1600
      5 H5          2.3446    2.4182   49.8582 H       1  ZINC000629379364    0.0800
      6 C6          1.0232    1.8805   51.4913 C.3     1  ZINC000629379364   -0.1300
      7 C7          0.0734    3.0691   51.3773 C.3     1  ZINC000629379364   -0.0100
      8 N8         -0.9151    2.8795   50.2981 N.4     1  ZINC000629379364   -0.3700
      9 H9         -1.5258    3.6812   50.2479 H       1  ZINC000629379364    0.4200
     10 C10        -1.7040    1.6665   50.5513 C.3     1  ZINC000629379364   -0.0200
     11 C11        -2.8807    2.0055   51.4685 C.3     1  ZINC000629379364    0.0300
     12 O12        -3.8365    0.9440   51.4293 O.3     1  ZINC000629379364   -0.3200
     13 C13        -5.0390    1.1744   52.0190 C.ar    1  ZINC000629379364    0.1600
     14 C14        -6.0680    0.2553   51.8797 C.ar    1  ZINC000629379364   -0.2300
     15 C15        -7.2917    0.4920   52.4812 C.ar    1  ZINC000629379364    0.1500
     16 F16        -8.2949   -0.4028   52.3462 F       1  ZINC000629379364   -0.1200
     17 C17        -7.4880    1.6455   53.2215 C.ar    1  ZINC000629379364   -0.1600
     18 C18        -6.4620    2.5631   53.3604 C.ar    1  ZINC000629379364   -0.0300
     19 Br19       -6.7334    4.1374   54.3723 Br      1  ZINC000629379364   -0.0100
     20 C20        -5.2367    2.3269   52.7658 C.ar    1  ZINC000629379364   -0.1300
     21 C21        -0.1788    2.7406   49.0521 C.3     1  ZINC000629379364   -0.0100
     22 H22         0.5178    3.5709   48.9358 H       1  ZINC000629379364    0.1400
     23 C23        -1.0186    2.5781   47.7809 C.3     1  ZINC000629379364   -0.1300
     24 C24        -0.0315    1.8956   46.7953 C.3     1  ZINC000629379364   -0.1200
     25 C25         1.0260    1.1735   47.6663 C.3     1  ZINC000629379364   -0.1100
     26 C26         0.6002    1.3992   49.1196 C.3     1  ZINC000629379364   -0.0700
     27 H27        -0.0870    0.6128   49.4320 H       1  ZINC000629379364    0.1000
     28 H28         0.4604    1.0026   51.8084 H       1  ZINC000629379364    0.0800
     29 H29         1.7861    2.1032   52.2372 H       1  ZINC000629379364    0.1100
     30 H30        -0.4535    3.1947   52.3233 H       1  ZINC000629379364    0.1200
     31 H31         0.6535    3.9690   51.1734 H       1  ZINC000629379364    0.1300
     32 H32        -2.0809    1.2745   49.6066 H       1  ZINC000629379364    0.1400
     33 H33        -1.0741    0.9169   51.0303 H       1  ZINC000629379364    0.1700
     34 H34        -2.5206    2.1327   52.4895 H       1  ZINC000629379364    0.1100
     35 H35        -3.3500    2.9296   51.1311 H       1  ZINC000629379364    0.0900
     36 H36        -5.9146   -0.6444   51.3022 H       1  ZINC000629379364    0.1500
     37 H37        -8.4432    1.8292   53.6908 H       1  ZINC000629379364    0.1500
     38 H38        -4.4363    3.0437   52.8752 H       1  ZINC000629379364    0.1500
     39 H39        -1.8808    1.9381   47.9677 H       1  ZINC000629379364    0.0800
     40 H40        -1.3334    3.5496   47.4000 H       1  ZINC000629379364    0.0900
     41 H41        -0.5618    1.1731   46.1751 H       1  ZINC000629379364    0.0800
     42 H42         0.4496    2.6461   46.1681 H       1  ZINC000629379364    0.0800
     43 H43         1.0473    0.1097   47.4295 H       1  ZINC000629379364    0.0900
     44 H44         2.0099    1.6157   47.5093 H       1  ZINC000629379364    0.0800
@<TRIPOS>BOND
     1     1     2   ar
     2     2     3   ar
     3     2     4    1
     4     4     5    1
     5     4    26    1
     6     4     6    1
     7     6     7    1
     8     6    28    1
     9     6    29    1
    10     7     8    1
    11     7    30    1
    12     7    31    1
    13     8     9    1
    14     8    10    1
    15     8    21    1
    16    10    11    1
    17    10    32    1
    18    10    33    1
    19    11    12    1
    20    11    34    1
    21    11    35    1
    22    12    13    1
    23    13    20   ar
    24    13    14   ar
    25    14    15   ar
    26    14    36    1
    27    15    16    1
    28    15    17   ar
    29    17    18   ar
    30    17    37    1
    31    18    19    1
    32    18    20   ar
    33    20    38    1
    34    21    22    1
    35    21    26    1
    36    21    23    1
    37    23    24    1
    38    23    39    1
    39    23    40    1
    40    24    25    1
    41    24    41    1
    42    24    42    1
    43    25    26    1
    44    25    43    1
    45    25    44    1
    46    26    27    1
@<TRIPOS>SUBSTRUCTURE
     1 ZINC000629379364        1 TEMP              0 ****  ****    0 ROOT


##########                                Name:    ZINC000588570917
##########                DOCK_Rotatable_Bonds:                   7
##########                         Heavy_Atoms:                  25
##########                    Molecular_Weight:             366.481
##########                DOCK_Rotatable_Bonds:                   7
##########                       Formal_Charge:          -0.0100006
##########                     HBond_Acceptors:                   7
##########                        HBond_Donors:                   1
##########                         Heavy_Atoms:                  25
##########                          Grid_Score:          -29.482454
##########                     Grid_vdw_energy:          -28.260702
##########                      Grid_es_energy:           -1.221753
##########           Internal_energy_repulsive:           16.956774

@<TRIPOS>MOLECULE
ZINC000588570917
 51 52 1 0 0
SMALL
USER_CHARGES


@<TRIPOS>ATOM
      1 C1         -9.1538    2.3545   55.2195 C.3     1  ZINC000588570917   -0.1300
      2 C2         -7.8576    2.3645   54.4508 C.2     1  ZINC000588570917   -0.0500
      3 C3         -7.8697    2.2563   53.1251 C.2     1  ZINC000588570917   -0.2000
      4 C4         -9.1794    2.1220   52.3919 C.3     1  ZINC000588570917   -0.0900
      5 C5         -9.5375    0.6409   52.2549 C.3     1  ZINC000588570917   -0.1500
      6 C6         -6.6048    2.2678   52.3749 C.2     1  ZINC000588570917    0.5600
      7 O7         -6.6130    2.1259   51.1670 O.2     1  ZINC000588570917   -0.5100
      8 N8         -5.4367    2.4355   53.0258 N.am    1  ZINC000588570917   -0.6800
      9 C9         -4.2340    2.4464   52.3126 C.ar    1  ZINC000588570917    0.2100
     10 C10        -3.7878    1.2917   51.6829 C.ar    1  ZINC000588570917   -0.1700
     11 C11        -2.5997    1.3061   50.9787 C.ar    1  ZINC000588570917    0.0000
     12 C12        -1.8547    2.4685   50.9004 C.ar    1  ZINC000588570917   -0.7000
     13 S13        -0.3395    2.4825   50.0010 S.o2    1  ZINC000588570917    2.6900
     14 O14         0.2834    3.7279   50.2839 O.2     1  ZINC000588570917   -0.9500
     15 O15         0.2833    1.2288   50.2448 O.2     1  ZINC000588570917   -0.9500
     16 N16        -0.7255    2.5076   48.3908 N.am    1  ZINC000588570917   -1.0000
     17 C17        -0.2833    3.6108   47.5231 C.3     1  ZINC000588570917    0.0900
     18 C18         0.3875    3.0106   46.2821 C.3     1  ZINC000588570917    0.0700
     19 H19         1.3185    2.5231   46.5713 H       1  ZINC000588570917    0.0700
     20 C20         0.6847    4.1224   45.2739 C.3     1  ZINC000588570917   -0.1500
     21 O21        -0.4908    2.0503   45.6904 O.3     1  ZINC000588570917   -0.3700
     22 C22        -0.7892    0.9336   46.5316 C.3     1  ZINC000588570917    0.0800
     23 H23        -1.4249    0.2313   45.9925 H       1  ZINC000588570917    0.1200
     24 C24         0.5115    0.2378   46.9378 C.3     1  ZINC000588570917   -0.1900
     25 C25        -1.5154    1.4245   47.7841 C.3     1  ZINC000588570917    0.0900
     26 C26        -2.2964    3.6200   51.5258 C.ar    1  ZINC000588570917    0.0000
     27 C27        -3.4860    3.6136   52.2274 C.ar    1  ZINC000588570917   -0.1400
     28 H28        -8.9452    2.4525   56.2848 H       1  ZINC000588570917    0.0600
     29 H29        -9.7762    3.1876   54.8931 H       1  ZINC000588570917    0.0800
     30 H30        -9.6775    1.4162   55.0366 H       1  ZINC000588570917    0.0800
     31 H31        -6.9189    2.4594   54.9763 H       1  ZINC000588570917    0.1300
     32 H32        -9.9625    2.6351   52.9499 H       1  ZINC000588570917    0.0700
     33 H33        -9.0883    2.5669   51.4009 H       1  ZINC000588570917    0.0800
     34 H34        -9.6287    0.1960   53.2458 H       1  ZINC000588570917    0.0500
     35 H35       -10.4848    0.5436   51.7246 H       1  ZINC000588570917    0.0600
     36 H36        -8.7543    0.1277   51.6969 H       1  ZINC000588570917    0.0600
     37 H37        -5.4303    2.5487   53.9892 H       1  ZINC000588570917    0.4100
     38 H38        -4.3690    0.3834   51.7440 H       1  ZINC000588570917    0.1400
     39 H39        -2.2520    0.4085   50.4891 H       1  ZINC000588570917    0.1400
     40 H40        -1.1435    4.2088   47.2223 H       1  ZINC000588570917    0.0900
     41 H41         0.4301    4.2365   48.0594 H       1  ZINC000588570917    0.1000
     42 H42         1.3512    4.8559   45.7277 H       1  ZINC000588570917    0.0700
     43 H43         1.1617    3.6951   44.3918 H       1  ZINC000588570917    0.0700
     44 H44        -0.2468    4.6085   44.9837 H       1  ZINC000588570917    0.0700
     45 H45         1.1458    0.9403   47.4785 H       1  ZINC000588570917    0.0600
     46 H46         0.2831   -0.6134   47.5792 H       1  ZINC000588570917    0.0700
     47 H47         1.0321   -0.1091   46.0452 H       1  ZINC000588570917    0.0700
     48 H48        -1.6205    0.6033   48.4931 H       1  ZINC000588570917    0.1000
     49 H49        -2.5005    1.8038   47.5124 H       1  ZINC000588570917    0.0900
     50 H50        -1.7122    4.5261   51.4627 H       1  ZINC000588570917    0.1400
     51 H51        -3.8306    4.5134   52.7153 H       1  ZINC000588570917    0.1500
@<TRIPOS>BOND
     1     1     2    1
     2     1    28    1
     3     1    29    1
     4     1    30    1
     5     2     3    2
     6     2    31    1
     7     3     4    1
     8     3     6    1
     9     4     5    1
    10     4    32    1
    11     4    33    1
    12     5    34    1
    13     5    35    1
    14     5    36    1
    15     6     7    2
    16     6     8   am
    17     8     9    1
    18     8    37    1
    19     9    27   ar
    20     9    10   ar
    21    10    11   ar
    22    10    38    1
    23    11    12   ar
    24    11    39    1
    25    12    13    1
    26    12    26   ar
    27    13    14    2
    28    13    15    2
    29    13    16   am
    30    16    25    1
    31    16    17    1
    32    17    18    1
    33    17    40    1
    34    17    41    1
    35    18    19    1
    36    18    20    1
    37    18    21    1
    38    20    42    1
    39    20    43    1
    40    20    44    1
    41    21    22    1
    42    22    23    1
    43    22    24    1
    44    22    25    1
    45    24    45    1
    46    24    46    1
    47    24    47    1
    48    25    48    1
    49    25    49    1
    50    26    27   ar
    51    26    50    1
    52    27    51    1
@<TRIPOS>SUBSTRUCTURE
     1 ZINC000588570917        1 TEMP              0 ****  ****    0 ROOT


##########                                Name:    ZINC000328606936
##########                DOCK_Rotatable_Bonds:                   6
##########                         Heavy_Atoms:                  23
##########                    Molecular_Weight:             338.428
##########                DOCK_Rotatable_Bonds:                   6
##########                       Formal_Charge:           0.0100001
##########                     HBond_Acceptors:                   7
##########                        HBond_Donors:                   2
##########                         Heavy_Atoms:                  23
##########                          Grid_Score:          -29.448757
##########                     Grid_vdw_energy:          -22.365068
##########                      Grid_es_energy:           -7.083689
##########           Internal_energy_repulsive:           12.706038

@<TRIPOS>MOLECULE
ZINC000328606936
 45 47 1 0 0
SMALL
USER_CHARGES


@<TRIPOS>ATOM
      1 C1         -7.0314    5.0943   55.5738 C.3     1  <0>        -0.0500
      2 N2         -5.9746    4.1434   55.9438 N.4     1  <0>        -0.3500
      3 H3         -5.8785    4.1213   56.9480 H       1  <0>         0.4200
      4 C4         -4.7036    4.5644   55.3395 C.3     1  <0>        -0.0900
      5 C5         -4.2826    5.8874   55.9256 C.2     1  <0>         0.4900
      6 O6         -4.5371    6.1472   57.0893 O.co2   1  <0>        -0.6700
      7 O7         -3.6873    6.6979   55.2361 O.co2   1  <0>        -0.6400
      8 C8         -6.3286    2.8037   55.4562 C.3     1  <0>         0.0100
      9 H9         -5.5766    2.0778   55.7656 H       1  <0>         0.1600
     10 C10        -6.4667    2.8113   53.9186 C.3     1  <0>         0.1000
     11 N11        -7.5978    1.8960   53.6403 N.am    1  <0>        -0.6200
     12 C12        -7.7096    1.0002   52.6395 C.2     1  <0>         0.6200
     13 O13        -6.8089    0.8763   51.8303 O.2     1  <0>        -0.5100
     14 C14        -8.9158    0.1752   52.5255 C.2     1  <0>        -0.2800
     15 C15       -10.1918    0.6458   52.4686 C.2     1  <0>        -0.0300
     16 C16       -11.1537   -0.3419   52.3621 C.2     1  <0>        -0.1200
     17 C17       -10.6504   -1.5968   52.3337 C.2     1  <0>        -0.1900
     18 C18       -11.4921   -2.8540   52.2211 C.3     1  <0>        -0.0500
     19 C19       -12.9436   -2.5065   52.5616 C.3     1  <0>        -0.1200
     20 C20       -13.3673   -1.2814   51.7461 C.3     1  <0>        -0.1200
     21 C21       -12.6456   -0.0445   52.2841 C.3     1  <0>        -0.0600
     22 S22        -8.9458   -1.5781   52.4328 S.3     1  <0>         0.2000
     23 C23        -8.5783    2.1885   54.7116 C.3     1  <0>         0.0600
     24 C24        -7.7196    2.3919   55.9815 C.3     1  <0>         0.0800
     25 H25        -8.1404    3.1843   56.6005 H       1  <0>         0.1000
     26 O26        -7.6351    1.1741   56.7244 O.3     1  <0>        -0.5400
     27 H27        -7.1352    5.1182   54.4890 H       1  <0>         0.1100
     28 H28        -7.9745    4.7819   56.0222 H       1  <0>         0.1100
     29 H29        -6.7687    6.0883   55.9356 H       1  <0>         0.1600
     30 H30        -3.9382    3.8161   55.5447 H       1  <0>         0.1200
     31 H31        -4.8304    4.6684   54.2619 H       1  <0>         0.1300
     32 H32        -6.6943    3.8160   53.5624 H       1  <0>         0.1000
     33 H33        -5.5538    2.4398   53.4531 H       1  <0>         0.1200
     34 H34       -10.4319    1.6982   52.5040 H       1  <0>         0.1500
     35 H35       -11.4377   -3.2403   51.2034 H       1  <0>         0.0900
     36 H36       -11.1226   -3.6049   52.9195 H       1  <0>         0.0800
     37 H37       -13.5882   -3.3500   52.3142 H       1  <0>         0.0700
     38 H38       -13.0253   -2.2827   53.6251 H       1  <0>         0.0700
     39 H39       -13.1026   -1.4315   50.6993 H       1  <0>         0.0700
     40 H40       -14.4446   -1.1409   51.8333 H       1  <0>         0.0700
     41 H41       -13.0235    0.1955   53.2780 H       1  <0>         0.0800
     42 H42       -12.8150    0.7979   51.6135 H       1  <0>         0.0800
     43 H43        -9.1356    3.0960   54.4794 H       1  <0>         0.1000
     44 H44        -9.2584    1.3472   54.8446 H       1  <0>         0.1000
     45 H45        -7.0837    1.2341   57.5166 H       1  <0>         0.4000
@<TRIPOS>BOND
     1     1     2    1
     2     1    27    1
     3     1    28    1
     4     1    29    1
     5     2     3    1
     6     2     4    1
     7     2     8    1
     8     4     5    1
     9     4    30    1
    10     4    31    1
    11     5     6   ar
    12     5     7   ar
    13     8     9    1
    14     8    24    1
    15     8    10    1
    16    10    11    1
    17    10    32    1
    18    10    33    1
    19    11    12   am
    20    11    23    1
    21    12    13    2
    22    12    14    1
    23    14    22    1
    24    14    15    2
    25    15    16    1
    26    15    34    1
    27    16    21    1
    28    16    17    2
    29    17    18    1
    30    17    22    1
    31    18    19    1
    32    18    35    1
    33    18    36    1
    34    19    20    1
    35    19    37    1
    36    19    38    1
    37    20    21    1
    38    20    39    1
    39    20    40    1
    40    21    41    1
    41    21    42    1
    42    23    24    1
    43    23    43    1
    44    23    44    1
    45    24    25    1
    46    24    26    1
    47    26    45    1
@<TRIPOS>SUBSTRUCTURE
     1 <0>         1 TEMP              0 ****  ****    0 ROOT


##########                                Name:    ZINC001191386213
##########                DOCK_Rotatable_Bonds:                   6
##########                         Heavy_Atoms:                  29
##########                    Molecular_Weight:             392.433
##########                DOCK_Rotatable_Bonds:                   6
##########                       Formal_Charge:               -0.02
##########                     HBond_Acceptors:                   7
##########                        HBond_Donors:                   2
##########                         Heavy_Atoms:                  29
##########                          Grid_Score:          -29.430246
##########                     Grid_vdw_energy:          -30.364439
##########                      Grid_es_energy:            0.934193
##########           Internal_energy_repulsive:           14.318247

@<TRIPOS>MOLECULE
ZINC001191386213
 50 53 1 0 0
SMALL
USER_CHARGES


@<TRIPOS>ATOM
      1 C1        -17.8995   -1.0777   61.4431 C.3     1  ZINC001191386213   -0.1700
      2 C2        -16.5523   -1.6561   61.0946 C.2     1  ZINC001191386213    0.5100
      3 O3        -16.4684   -2.7957   60.6883 O.2     1  ZINC001191386213   -0.5200
      4 N4        -15.4406   -0.9070   61.2344 N.am    1  ZINC001191386213   -0.6800
      5 C5        -14.1896   -1.4441   60.9108 C.ar    1  ZINC001191386213    0.1400
      6 C6        -13.2043   -1.5465   61.8849 C.ar    1  ZINC001191386213   -0.1400
      7 C7        -11.9678   -2.0769   61.5689 C.ar    1  ZINC001191386213   -0.1000
      8 C8        -11.7048   -2.5074   60.2839 C.ar    1  ZINC001191386213   -0.1100
      9 C9        -12.6873   -2.4080   59.3004 C.ar    1  ZINC001191386213    0.0100
     10 C10       -12.4059   -2.8706   57.9181 C.2     1  ZINC001191386213    0.0700
     11 N11       -11.5639   -3.8215   57.5725 N.2     1  ZINC001191386213   -0.2500
     12 N12       -11.5525   -3.9795   56.2982 N.pl3   1  ZINC001191386213   -0.3800
     13 C13       -12.4235   -3.1035   55.7136 C.2     1  ZINC001191386213   -0.0400
     14 C14       -12.7030   -2.9666   54.2750 C.2     1  ZINC001191386213    0.6100
     15 O15       -13.7163   -3.4469   53.8038 O.2     1  ZINC001191386213   -0.5100
     16 N16       -11.8361   -2.3089   53.4797 N.am    1  ZINC001191386213   -0.6200
     17 C17       -11.9905   -2.0991   52.0328 C.3     1  ZINC001191386213    0.0800
     18 C18       -10.7485   -1.3221   51.5473 C.3     1  ZINC001191386213   -0.1200
     19 C19        -9.6950   -1.6309   52.6438 C.3     1  ZINC001191386213   -0.0600
     20 H20        -9.2144   -2.5925   52.4640 H       1  ZINC001191386213    0.1000
     21 C21        -8.6723   -0.5280   52.7361 C.ar    1  ZINC001191386213   -0.1100
     22 C22        -9.0007    0.6702   53.3408 C.ar    1  ZINC001191386213   -0.0900
     23 C23        -8.0626    1.6824   53.4256 C.ar    1  ZINC001191386213   -0.1300
     24 C24        -6.7955    1.4972   52.9053 C.ar    1  ZINC001191386213   -0.0900
     25 C25        -6.4649    0.2996   52.2996 C.ar    1  ZINC001191386213   -0.1500
     26 C26        -7.4012   -0.7169   52.2200 C.ar    1  ZINC001191386213    0.1100
     27 F27        -7.0792   -1.8879   51.6281 F       1  ZINC001191386213   -0.1400
     28 C28       -10.5791   -1.6753   53.9178 C.3     1  ZINC001191386213    0.1200
     29 C29       -12.9953   -2.3764   56.7402 C.2     1  ZINC001191386213   -0.1300
     30 C30       -13.9348   -1.8798   59.6190 C.ar    1  ZINC001191386213   -0.1000
     31 H31       -18.6726   -1.8256   61.2668 H       1  ZINC001191386213    0.1000
     32 H32       -17.9090   -0.7859   62.4933 H       1  ZINC001191386213    0.0900
     33 H33       -18.0914   -0.2033   60.8213 H       1  ZINC001191386213    0.0900
     34 H34       -15.5078    0.0046   61.5593 H       1  ZINC001191386213    0.4100
     35 H35       -13.4050   -1.2103   62.8914 H       1  ZINC001191386213    0.1300
     36 H36       -11.2049   -2.1545   62.3295 H       1  ZINC001191386213    0.1300
     37 H37       -10.7373   -2.9210   60.0405 H       1  ZINC001191386213    0.1300
     38 H38       -11.0066   -4.6241   55.8214 H       1  ZINC001191386213    0.4400
     39 H39       -12.0489   -3.0607   51.5228 H       1  ZINC001191386213    0.0700
     40 H40       -12.8914   -1.5177   51.8365 H       1  ZINC001191386213    0.0800
     41 H41       -10.4162   -1.6933   50.5779 H       1  ZINC001191386213    0.0900
     42 H42       -10.9559   -0.2530   51.5019 H       1  ZINC001191386213    0.0900
     43 H43        -9.9907    0.8164   53.7471 H       1  ZINC001191386213    0.1300
     44 H44        -8.3201    2.6186   53.8984 H       1  ZINC001191386213    0.1300
     45 H45        -6.0636    2.2886   52.9718 H       1  ZINC001191386213    0.1300
     46 H46        -5.4750    0.1553   51.8926 H       1  ZINC001191386213    0.1400
     47 H47       -10.7649   -0.6663   54.2859 H       1  ZINC001191386213    0.0800
     48 H48       -10.1024   -2.2798   54.6894 H       1  ZINC001191386213    0.0900
     49 H49       -13.7324   -1.5916   56.6558 H       1  ZINC001191386213    0.1700
     50 H50       -14.6993   -1.8007   58.8602 H       1  ZINC001191386213    0.1500
@<TRIPOS>BOND
     1     1     2    1
     2     1    31    1
     3     1    32    1
     4     1    33    1
     5     2     3    2
     6     2     4   am
     7     4     5    1
     8     4    34    1
     9     5    30   ar
    10     5     6   ar
    11     6     7   ar
    12     6    35    1
    13     7     8   ar
    14     7    36    1
    15     8     9   ar
    16     8    37    1
    17     9    10    1
    18     9    30   ar
    19    10    29    1
    20    10    11    2
    21    11    12    1
    22    12    13    1
    23    12    38    1
    24    13    14    1
    25    13    29    2
    26    14    15    2
    27    14    16   am
    28    16    28    1
    29    16    17    1
    30    17    18    1
    31    17    39    1
    32    17    40    1
    33    18    19    1
    34    18    41    1
    35    18    42    1
    36    19    20    1
    37    19    21    1
    38    19    28    1
    39    21    26   ar
    40    21    22   ar
    41    22    23   ar
    42    22    43    1
    43    23    24   ar
    44    23    44    1
    45    24    25   ar
    46    24    45    1
    47    25    26   ar
    48    25    46    1
    49    26    27    1
    50    28    47    1
    51    28    48    1
    52    29    49    1
    53    30    50    1
@<TRIPOS>SUBSTRUCTURE
     1 ZINC001191386213        1 TEMP              0 ****  ****    0 ROOT


##########                                Name:    ZINC000590699876
##########                DOCK_Rotatable_Bonds:                   9
##########                         Heavy_Atoms:                  30
##########                    Molecular_Weight:              421.54
##########                DOCK_Rotatable_Bonds:                   9
##########                       Formal_Charge:          -0.0300004
##########                     HBond_Acceptors:                   9
##########                        HBond_Donors:                   1
##########                         Heavy_Atoms:                  30
##########                          Grid_Score:          -29.429672
##########                     Grid_vdw_energy:          -27.770599
##########                      Grid_es_energy:           -1.659073
##########           Internal_energy_repulsive:          102.941261

@<TRIPOS>MOLECULE
ZINC000590699876
 65 67 1 0 0
SMALL
USER_CHARGES


@<TRIPOS>ATOM
      1 C1          3.5401    0.2870   59.2446 C.3     1  ZINC000590699876   -0.1700
      2 C2          2.4778    1.3534   59.3163 C.2     1  ZINC000590699876    0.5100
      3 O3          2.7846    2.5225   59.2175 O.2     1  ZINC000590699876   -0.5500
      4 N4          1.1868    1.0078   59.4901 N.am    1  ZINC000590699876   -0.7200
      5 C5          0.1541    2.0446   59.5616 C.3     1  ZINC000590699876    0.1100
      6 C6         -0.3033    2.3950   58.1691 C.2     1  ZINC000590699876    0.5300
      7 O7         -0.1849    1.5885   57.2711 O.2     1  ZINC000590699876   -0.5200
      8 N8         -0.8437    3.6046   57.9218 N.am    1  ZINC000590699876   -0.6000
      9 C9         -1.0457    4.6749   58.9154 C.3     1  ZINC000590699876    0.1000
     10 C10        -1.0832    5.9833   58.0868 C.3     1  ZINC000590699876   -0.1300
     11 C11        -1.8328    5.5214   56.8092 C.3     1  ZINC000590699876   -0.1300
     12 C12        -1.3236    4.0776   56.6151 C.3     1  ZINC000590699876    0.1200
     13 H13        -2.1385    3.4402   56.2722 H       1  ZINC000590699876    0.1000
     14 C14        -0.2018    4.0607   55.6090 C.2     1  ZINC000590699876    0.5100
     15 O15         0.9481    3.9729   55.9844 O.2     1  ZINC000590699876   -0.5200
     16 N16        -0.4763    4.1431   54.2921 N.am    1  ZINC000590699876   -0.6100
     17 C17         0.6030    4.1204   53.2931 C.3     1  ZINC000590699876    0.1000
     18 C18         0.2695    3.0580   52.2404 C.3     1  ZINC000590699876    0.0400
     19 N19        -1.0722    3.3132   51.6995 N.3     1  ZINC000590699876   -0.5200
     20 C20        -1.3619    2.4225   50.5679 C.3     1  ZINC000590699876    0.0400
     21 C21        -0.8271    3.0332   49.2983 C.2     1  ZINC000590699876    0.5200
     22 O22        -0.3341    4.1411   49.3190 O.2     1  ZINC000590699876   -0.5100
     23 N23        -0.8965    2.3482   48.1397 N.am    1  ZINC000590699876   -0.6100
     24 C24        -1.4908    1.0051   48.0985 C.3     1  ZINC000590699876    0.1100
     25 C25        -0.4889    0.0422   47.4538 C.3     1  ZINC000590699876   -0.1400
     26 C26        -0.0717    0.5870   46.0859 C.3     1  ZINC000590699876   -0.1200
     27 C27         0.6095    1.9460   46.2623 C.3     1  ZINC000590699876   -0.1300
     28 C28        -0.3851    2.9328   46.8925 C.3     1  ZINC000590699876    0.1400
     29 H29        -1.2091    3.1122   46.2019 H       1  ZINC000590699876    0.0700
     30 C30         0.3256    4.2530   47.1972 C.3     1  ZINC000590699876   -0.1400
     31 C31        -2.0993    3.1903   52.7425 C.3     1  ZINC000590699876    0.0400
     32 C32        -1.8635    4.2521   53.8155 C.3     1  ZINC000590699876    0.1200
     33 H33         4.5147    0.7540   59.1024 H       1  ZINC000590699876    0.1000
     34 H34         3.5434   -0.2856   60.1720 H       1  ZINC000590699876    0.0900
     35 H35         3.3307   -0.3788   58.4073 H       1  ZINC000590699876    0.0900
     36 H36         0.9412    0.0727   59.5679 H       1  ZINC000590699876    0.4100
     37 H37        -0.6926    1.6747   60.1399 H       1  ZINC000590699876    0.1000
     38 H38         0.5634    2.9323   60.0439 H       1  ZINC000590699876    0.1000
     39 H39        -1.9899    4.5314   59.4408 H       1  ZINC000590699876    0.0800
     40 H40        -0.2166    4.6974   59.6225 H       1  ZINC000590699876    0.0800
     41 H41        -1.6422    6.7601   58.6083 H       1  ZINC000590699876    0.0900
     42 H42        -0.0755    6.3231   57.8473 H       1  ZINC000590699876    0.0800
     43 H43        -2.9110    5.5360   56.9681 H       1  ZINC000590699876    0.1000
     44 H44        -1.5593    6.1422   55.9560 H       1  ZINC000590699876    0.0900
     45 H45         0.6806    5.0972   52.8157 H       1  ZINC000590699876    0.0800
     46 H46         1.5463    3.8712   53.7789 H       1  ZINC000590699876    0.0900
     47 H47         1.0014    3.1028   51.4339 H       1  ZINC000590699876    0.0900
     48 H48         0.2945    2.0700   52.7002 H       1  ZINC000590699876    0.0400
     49 H49        -0.8859    1.4563   50.7349 H       1  ZINC000590699876    0.1000
     50 H50        -2.4397    2.2860   50.4795 H       1  ZINC000590699876    0.0600
     51 H51        -1.7154    0.6737   49.1124 H       1  ZINC000590699876    0.0800
     52 H52        -2.4067    1.0287   47.5082 H       1  ZINC000590699876    0.0700
     53 H53         0.3899   -0.0498   48.0922 H       1  ZINC000590699876    0.0700
     54 H54        -0.9529   -0.9363   47.3296 H       1  ZINC000590699876    0.0800
     55 H55         0.6224   -0.1086   45.6142 H       1  ZINC000590699876    0.0700
     56 H56        -0.9540    0.7020   45.4563 H       1  ZINC000590699876    0.0600
     57 H57         1.4779    1.8361   46.9119 H       1  ZINC000590699876    0.0700
     58 H58         0.9272    2.3226   45.2900 H       1  ZINC000590699876    0.0700
     59 H59         0.7711    4.6453   46.2829 H       1  ZINC000590699876    0.0400
     60 H60        -0.3947    4.9718   47.5877 H       1  ZINC000590699876    0.0700
     61 H61         1.1070    4.0826   47.9378 H       1  ZINC000590699876    0.0700
     62 H62        -3.0856    3.3313   52.3001 H       1  ZINC000590699876    0.1100
     63 H63        -2.0415    2.2005   53.1953 H       1  ZINC000590699876    0.0300
     64 H64        -2.5512    4.0926   54.6459 H       1  ZINC000590699876    0.0900
     65 H65        -2.0216    5.2434   53.3907 H       1  ZINC000590699876    0.0800
@<TRIPOS>BOND
     1     1     2    1
     2     1    33    1
     3     1    34    1
     4     1    35    1
     5     2     3    2
     6     2     4   am
     7     4     5    1
     8     4    36    1
     9     5     6    1
    10     5    37    1
    11     5    38    1
    12     6     7    2
    13     6     8   am
    14     8    12    1
    15     8     9    1
    16     9    10    1
    17     9    39    1
    18     9    40    1
    19    10    11    1
    20    10    41    1
    21    10    42    1
    22    11    12    1
    23    11    43    1
    24    11    44    1
    25    12    13    1
    26    12    14    1
    27    14    15    2
    28    14    16   am
    29    16    32    1
    30    16    17    1
    31    17    18    1
    32    17    45    1
    33    17    46    1
    34    18    19    1
    35    18    47    1
    36    18    48    1
    37    19    20    1
    38    19    31    1
    39    20    21    1
    40    20    49    1
    41    20    50    1
    42    21    22    2
    43    21    23   am
    44    23    28    1
    45    23    24    1
    46    24    25    1
    47    24    51    1
    48    24    52    1
    49    25    26    1
    50    25    53    1
    51    25    54    1
    52    26    27    1
    53    26    55    1
    54    26    56    1
    55    27    28    1
    56    27    57    1
    57    27    58    1
    58    28    29    1
    59    28    30    1
    60    30    59    1
    61    30    60    1
    62    30    61    1
    63    31    32    1
    64    31    62    1
    65    31    63    1
    66    32    64    1
    67    32    65    1
@<TRIPOS>SUBSTRUCTURE
     1 ZINC000590699876        1 TEMP              0 ****  ****    0 ROOT


##########                                Name:    ZINC000549659617
##########                DOCK_Rotatable_Bonds:                   9
##########                         Heavy_Atoms:                  28
##########                    Molecular_Weight:              418.48
##########                DOCK_Rotatable_Bonds:                   9
##########                       Formal_Charge:          0.00999956
##########                     HBond_Acceptors:                   9
##########                        HBond_Donors:                   1
##########                         Heavy_Atoms:                  28
##########                          Grid_Score:          -29.398829
##########                     Grid_vdw_energy:          -29.832439
##########                      Grid_es_energy:            0.433611
##########           Internal_energy_repulsive:           19.443640

@<TRIPOS>MOLECULE
ZINC000549659617
 53 55 1 0 0
SMALL
USER_CHARGES


@<TRIPOS>ATOM
      1 C1          1.5490    6.4071   49.2079 C.3     1  ZINC000549659617   -0.1500
      2 C2          0.3416    5.8737   49.9818 C.3     1  ZINC000549659617   -0.1500
      3 C3         -0.6147    5.1728   49.0147 C.3     1  ZINC000549659617    0.1100
      4 N4         -1.2144    4.0116   49.6769 N.am    1  ZINC000549659617   -0.6100
      5 C5         -2.1128    4.1893   50.6656 C.2     1  ZINC000549659617    0.7100
      6 O6         -2.4246    5.3131   51.0092 O.2     1  ZINC000549659617   -0.5700
      7 N7         -2.6659    3.1210   51.2736 N.am    1  ZINC000549659617   -0.7400
      8 C8         -3.6413    3.3141   52.3495 C.3     1  ZINC000549659617    0.2300
      9 H9         -4.0959    4.3002   52.2552 H       1  ZINC000549659617    0.1100
     10 C10        -4.7108    2.2567   52.2536 C.ar    1  ZINC000549659617   -0.0900
     11 C11        -4.4046    1.0081   51.7459 C.ar    1  ZINC000549659617   -0.0800
     12 C12        -5.3857    0.0380   51.6580 C.ar    1  ZINC000549659617   -0.1100
     13 C13        -6.6726    0.3167   52.0782 C.ar    1  ZINC000549659617   -0.0700
     14 C14        -6.9788    1.5653   52.5869 C.ar    1  ZINC000549659617   -0.1800
     15 C15        -8.3820    1.8692   53.0446 C.3     1  ZINC000549659617    0.5100
     16 F16        -8.4711    1.6857   54.4286 F       1  ZINC000549659617   -0.1800
     17 F17        -8.6988    3.1948   52.7285 F       1  ZINC000549659617   -0.1700
     18 F18        -9.2788    1.0094   52.4014 F       1  ZINC000549659617   -0.1700
     19 C19        -5.9969    2.5337   52.6787 C.ar    1  ZINC000549659617   -0.0500
     20 C20        -2.9360    3.2049   53.7029 C.3     1  ZINC000549659617   -0.1700
     21 C21        -2.7475    4.4927   54.5071 C.3     1  ZINC000549659617   -0.1700
     22 C22        -3.7746    3.4523   54.9585 C.3     1  ZINC000549659617   -0.1800
     23 C23        -0.8375    2.6574   49.2642 C.3     1  ZINC000549659617    0.1700
     24 H24        -1.3540    1.9222   49.8810 H       1  ZINC000549659617    0.1100
     25 C25         0.6851    2.4732   49.3885 C.3     1  ZINC000549659617   -0.1400
     26 C26         1.0904    1.1881   48.6395 C.3     1  ZINC000549659617   -0.5900
     27 S27        -0.1665    0.9861   47.3261 S.o2    1  ZINC000549659617    2.3900
     28 O28         0.4376    1.2047   46.0585 O.2     1  ZINC000549659617   -0.9300
     29 O29        -0.9067   -0.2039   47.5615 O.2     1  ZINC000549659617   -0.9400
     30 C30        -1.1912    2.4398   47.7704 C.3     1  ZINC000549659617   -0.6100
     31 H31         2.2303    6.9065   49.8968 H       1  ZINC000549659617    0.0600
     32 H32         2.0650    5.5783   48.7235 H       1  ZINC000549659617    0.0600
     33 H33         1.2117    7.1166   48.4523 H       1  ZINC000549659617    0.0600
     34 H34         0.6789    5.1642   50.7374 H       1  ZINC000549659617    0.0700
     35 H35        -0.1745    6.7026   50.4662 H       1  ZINC000549659617    0.0700
     36 H36        -1.4005    5.8659   48.7145 H       1  ZINC000549659617    0.0800
     37 H37        -0.0639    4.8441   48.1334 H       1  ZINC000549659617    0.0900
     38 H38        -2.4181    2.2243   50.9987 H       1  ZINC000549659617    0.4000
     39 H39        -3.3990    0.7905   51.4176 H       1  ZINC000549659617    0.1300
     40 H40        -5.1467   -0.9373   51.2607 H       1  ZINC000549659617    0.1400
     41 H41        -7.4392   -0.4409   52.0088 H       1  ZINC000549659617    0.1400
     42 H42        -6.2359    3.5090   53.0761 H       1  ZINC000549659617    0.1400
     43 H43        -2.1487    2.4535   53.7635 H       1  ZINC000549659617    0.1100
     44 H44        -1.8359    4.5888   55.0970 H       1  ZINC000549659617    0.0900
     45 H45        -3.1259    5.4177   54.0721 H       1  ZINC000549659617    0.0900
     46 H46        -4.8286    3.6929   54.8202 H       1  ZINC000549659617    0.1200
     47 H47        -3.5387    2.8640   55.8452 H       1  ZINC000549659617    0.0900
     48 H48         1.1951    3.3301   48.9483 H       1  ZINC000549659617    0.1100
     49 H49         0.9592    2.3865   50.4399 H       1  ZINC000549659617    0.0900
     50 H50         2.0816    1.3024   48.2005 H       1  ZINC000549659617    0.1400
     51 H51         1.0714    0.3337   49.3161 H       1  ZINC000549659617    0.1400
     52 H52        -2.2515    2.2168   47.6513 H       1  ZINC000549659617    0.1400
     53 H53        -0.9085    3.3087   47.1760 H       1  ZINC000549659617    0.1600
@<TRIPOS>BOND
     1     1     2    1
     2     1    31    1
     3     1    32    1
     4     1    33    1
     5     2     3    1
     6     2    34    1
     7     2    35    1
     8     3     4    1
     9     3    36    1
    10     3    37    1
    11     4     5   am
    12     4    23    1
    13     5     6    2
    14     5     7   am
    15     7     8    1
    16     7    38    1
    17     8     9    1
    18     8    10    1
    19     8    20    1
    20    10    19   ar
    21    10    11   ar
    22    11    12   ar
    23    11    39    1
    24    12    13   ar
    25    12    40    1
    26    13    14   ar
    27    13    41    1
    28    14    15    1
    29    14    19   ar
    30    15    16    1
    31    15    17    1
    32    15    18    1
    33    19    42    1
    34    20    22    1
    35    20    21    1
    36    20    43    1
    37    21    22    1
    38    21    44    1
    39    21    45    1
    40    22    46    1
    41    22    47    1
    42    23    24    1
    43    23    30    1
    44    23    25    1
    45    25    26    1
    46    25    48    1
    47    25    49    1
    48    26    27    1
    49    26    50    1
    50    26    51    1
    51    27    28    2
    52    27    29    2
    53    27    30    1
    54    30    52    1
    55    30    53    1
@<TRIPOS>SUBSTRUCTURE
     1 ZINC000549659617        1 TEMP              0 ****  ****    0 ROOT


##########                                Name:    ZINC001436455587
##########                DOCK_Rotatable_Bonds:                   9
##########                         Heavy_Atoms:                  21
##########                    Molecular_Weight:             378.693
##########                DOCK_Rotatable_Bonds:                   9
##########                       Formal_Charge:          -0.0200001
##########                     HBond_Acceptors:                   5
##########                        HBond_Donors:                   1
##########                         Heavy_Atoms:                  21
##########                          Grid_Score:          -29.397247
##########                     Grid_vdw_energy:          -29.519251
##########                      Grid_es_energy:            0.122004
##########           Internal_energy_repulsive:            9.572452

@<TRIPOS>MOLECULE
ZINC001436455587
 42 42 1 0 0
SMALL
USER_CHARGES


@<TRIPOS>ATOM
      1 C1        -12.9210    2.7173   46.7408 C.3     1  ZINC001436455587   -0.1500
      2 C2        -13.9091    1.7938   47.4559 C.3     1  ZINC001436455587   -0.1300
      3 C3        -13.1445    0.8562   48.3926 C.3     1  ZINC001436455587   -0.1400
      4 C4        -14.1391    0.0230   49.2035 C.3     1  ZINC001436455587    0.0800
      5 H5        -15.1440    0.4227   49.0671 H       1  ZINC001436455587    0.0700
      6 C6        -13.7640    0.0812   50.6857 C.3     1  ZINC001436455587    0.1200
      7 N7        -12.4374   -0.5100   50.8773 N.am    1  ZINC001436455587   -0.7200
      8 C8        -12.1365   -1.1287   52.0362 C.2     1  ZINC001436455587    0.5200
      9 O9        -12.9643   -1.1974   52.9198 O.2     1  ZINC001436455587   -0.5100
     10 C10       -10.7711   -1.7354   52.2341 C.3     1  ZINC001436455587    0.0600
     11 H11       -10.2337   -1.7377   51.2858 H       1  ZINC001436455587    0.1000
     12 C12       -10.9197   -3.1717   52.7396 C.3     1  ZINC001436455587   -0.1800
     13 O13       -10.0424   -0.9660   53.1927 O.3     1  ZINC001436455587   -0.2700
     14 C14        -8.8115   -0.5239   52.8222 C.ar    1  ZINC001436455587    0.1600
     15 C15        -7.9668   -1.3498   52.0961 C.ar    1  ZINC001436455587   -0.2000
     16 C16        -6.7160   -0.8986   51.7199 C.ar    1  ZINC001436455587   -0.0500
     17 C17        -6.3056    0.3760   52.0675 C.ar    1  ZINC001436455587   -0.0700
     18 Cl18       -4.7335    0.9398   51.5940 Cl      1  ZINC001436455587   -0.0600
     19 C19        -7.1469    1.2024   52.7917 C.ar    1  ZINC001436455587   -0.0400
     20 C20        -8.4006    0.7570   53.1653 C.ar    1  ZINC001436455587   -0.1200
     21 Br21       -9.5500    1.8862   54.1550 Br      1  ZINC001436455587   -0.0100
     22 O22       -14.1011   -1.3334   48.7554 O.3     1  ZINC001436455587   -0.3800
     23 C23       -14.8190   -1.5649   47.5417 C.3     1  ZINC001436455587    0.0200
     24 H24       -12.3750    3.3061   47.4780 H       1  ZINC001436455587    0.0500
     25 H25       -12.2182    2.1186   46.1613 H       1  ZINC001436455587    0.0600
     26 H26       -13.4656    3.3853   46.0735 H       1  ZINC001436455587    0.0600
     27 H27       -14.6119    2.3924   48.0355 H       1  ZINC001436455587    0.0600
     28 H28       -14.4550    1.2050   46.7187 H       1  ZINC001436455587    0.0700
     29 H29       -12.5099    0.1932   47.8045 H       1  ZINC001436455587    0.0800
     30 H30       -12.5260    1.4446   49.0702 H       1  ZINC001436455587    0.0800
     31 H31       -13.7502    1.1198   51.0164 H       1  ZINC001436455587    0.0800
     32 H32       -14.4977   -0.4759   51.2683 H       1  ZINC001436455587    0.0800
     33 H33       -11.7756   -0.4561   50.1702 H       1  ZINC001436455587    0.4000
     34 H34        -9.9322   -3.6105   52.8827 H       1  ZINC001436455587    0.0800
     35 H35       -11.4571   -3.1695   53.6879 H       1  ZINC001436455587    0.0800
     36 H36       -11.4755   -3.7587   52.0083 H       1  ZINC001436455587    0.0800
     37 H37        -8.2861   -2.3452   51.8251 H       1  ZINC001436455587    0.1500
     38 H38        -6.0580   -1.5417   51.1544 H       1  ZINC001436455587    0.1400
     39 H39        -6.8249    2.1973   53.0618 H       1  ZINC001436455587    0.1500
     40 H40       -14.3414   -1.0199   46.7275 H       1  ZINC001436455587    0.0500
     41 H41       -14.8164   -2.6313   47.3158 H       1  ZINC001436455587    0.0900
     42 H42       -15.8467   -1.2202   47.6561 H       1  ZINC001436455587    0.0400
@<TRIPOS>BOND
     1     1     2    1
     2     1    24    1
     3     1    25    1
     4     1    26    1
     5     2     3    1
     6     2    27    1
     7     2    28    1
     8     3     4    1
     9     3    29    1
    10     3    30    1
    11     4     5    1
    12     4     6    1
    13     4    22    1
    14     6     7    1
    15     6    31    1
    16     6    32    1
    17     7     8   am
    18     7    33    1
    19     8     9    2
    20     8    10    1
    21    10    11    1
    22    10    12    1
    23    10    13    1
    24    12    34    1
    25    12    35    1
    26    12    36    1
    27    13    14    1
    28    14    20   ar
    29    14    15   ar
    30    15    16   ar
    31    15    37    1
    32    16    17   ar
    33    16    38    1
    34    17    18    1
    35    17    19   ar
    36    19    20   ar
    37    19    39    1
    38    20    21    1
    39    22    23    1
    40    23    40    1
    41    23    41    1
    42    23    42    1
@<TRIPOS>SUBSTRUCTURE
     1 ZINC001436455587        1 TEMP              0 ****  ****    0 ROOT


##########                                Name:    ZINC000192150625
##########                DOCK_Rotatable_Bonds:                   5
##########                         Heavy_Atoms:                  28
##########                    Molecular_Weight:             377.443
##########                DOCK_Rotatable_Bonds:                   5
##########                       Formal_Charge:           0.0199997
##########                     HBond_Acceptors:                   6
##########                        HBond_Donors:                   1
##########                         Heavy_Atoms:                  28
##########                          Grid_Score:          -29.394125
##########                     Grid_vdw_energy:          -29.704760
##########                      Grid_es_energy:            0.310635
##########           Internal_energy_repulsive:           13.807949

@<TRIPOS>MOLECULE
ZINC000192150625
 51 54 1 0 0
SMALL
USER_CHARGES


@<TRIPOS>ATOM
      1 C1        -12.0496   -2.6927   52.3383 C.3     1  ZINC000192150625   -0.0800
      2 C2        -10.7620   -1.9111   52.2894 C.2     1  ZINC000192150625    0.0400
      3 C3        -10.6775   -0.5746   52.2447 C.2     1  ZINC000192150625   -0.1800
      4 C4        -11.8228    0.4047   52.2336 C.3     1  ZINC000192150625   -0.0800
      5 C5         -9.2449   -0.2561   52.2090 C.ar    1  ZINC000192150625   -0.1000
      6 C6         -8.5127    0.9283   52.1574 C.ar    1  ZINC000192150625   -0.0700
      7 C7         -7.1297    0.8753   52.1343 C.ar    1  ZINC000192150625    0.1200
      8 N8         -6.3863    2.0591   52.0829 N.am    1  ZINC000192150625   -0.6400
      9 C9         -6.0945    2.7215   53.2198 C.2     1  ZINC000192150625    0.5100
     10 O10        -6.4768    2.2908   54.2884 O.2     1  ZINC000192150625   -0.4900
     11 C11        -5.3008    3.9855   53.1649 C.2     1  ZINC000192150625    0.5100
     12 O12        -5.8681    5.0583   53.1567 O.2     1  ZINC000192150625   -0.5200
     13 N13        -3.9546    3.9346   53.1247 N.am    1  ZINC000192150625   -0.5800
     14 C14        -3.2539    2.6432   53.1279 C.3     1  ZINC000192150625    0.0500
     15 C15        -2.2985    2.5976   51.9313 C.3     1  ZINC000192150625   -0.1200
     16 C16        -1.3726    3.8153   51.9761 C.3     1  ZINC000192150625   -0.0500
     17 C17        -0.4088    3.7559   50.8191 C.ar    1  ZINC000192150625   -0.0300
     18 C18         0.8129    3.1127   50.9454 C.ar    1  ZINC000192150625   -0.1700
     19 C19         1.6711    3.0784   49.8626 C.ar    1  ZINC000192150625    0.1000
     20 N20         1.3394    3.6486   48.7207 N.ar    1  ZINC000192150625   -0.4900
     21 C21         0.1862    4.2689   48.5646 C.ar    1  ZINC000192150625    0.1000
     22 C22        -0.7251    4.3383   49.6012 C.ar    1  ZINC000192150625   -0.1700
     23 C23        -2.2057    5.0954   51.8806 C.3     1  ZINC000192150625   -0.1200
     24 C24        -3.1601    5.1693   53.0705 C.3     1  ZINC000192150625    0.1100
     25 C25        -6.4767   -0.3554   52.1626 C.ar    1  ZINC000192150625   -0.1100
     26 C26        -7.1949   -1.5297   52.2137 C.ar    1  ZINC000192150625   -0.0800
     27 C27        -8.5835   -1.4956   52.2375 C.ar    1  ZINC000192150625    0.0500
     28 O28        -9.5321   -2.4536   52.2902 O.3     1  ZINC000192150625   -0.1900
     29 H29       -11.8262   -3.7590   52.3736 H       1  ZINC000192150625    0.0800
     30 H30       -12.6129   -2.4098   53.2274 H       1  ZINC000192150625    0.0900
     31 H31       -12.6410   -2.4748   51.4489 H       1  ZINC000192150625    0.0900
     32 H32       -12.0808    0.6737   53.2579 H       1  ZINC000192150625    0.0700
     33 H33       -11.5299    1.3002   51.6855 H       1  ZINC000192150625    0.0700
     34 H34       -12.6863   -0.0515   51.7493 H       1  ZINC000192150625    0.0700
     35 H35        -9.0209    1.8811   52.1351 H       1  ZINC000192150625    0.1400
     36 H36        -6.0807    2.4033   51.2291 H       1  ZINC000192150625    0.4300
     37 H37        -2.6865    2.5377   54.0527 H       1  ZINC000192150625    0.0700
     38 H38        -3.9792    1.8336   53.0476 H       1  ZINC000192150625    0.1600
     39 H39        -1.7029    1.6857   51.9758 H       1  ZINC000192150625    0.0800
     40 H40        -2.8739    2.6119   51.0057 H       1  ZINC000192150625    0.0700
     41 H41        -0.8157    3.8137   52.9131 H       1  ZINC000192150625    0.0900
     42 H42         1.0906    2.6445   51.8782 H       1  ZINC000192150625    0.1300
     43 H43         2.6246    2.5794   49.9528 H       1  ZINC000192150625    0.1600
     44 H44        -0.0504    4.7245   47.6145 H       1  ZINC000192150625    0.1600
     45 H45        -1.6681    4.8475   49.4671 H       1  ZINC000192150625    0.1300
     46 H46        -1.5439    5.9617   51.8890 H       1  ZINC000192150625    0.0800
     47 H47        -2.7819    5.0863   50.9554 H       1  ZINC000192150625    0.0700
     48 H48        -3.8228    6.0270   52.9548 H       1  ZINC000192150625    0.1000
     49 H49        -2.5875    5.2691   53.9926 H       1  ZINC000192150625    0.0800
     50 H50        -5.3973   -0.3889   52.1439 H       1  ZINC000192150625    0.1400
     51 H51        -6.6781   -2.4777   52.2353 H       1  ZINC000192150625    0.1400
@<TRIPOS>BOND
     1     1     2    1
     2     1    29    1
     3     1    30    1
     4     1    31    1
     5     2    28    1
     6     2     3    2
     7     3     4    1
     8     3     5    1
     9     4    32    1
    10     4    33    1
    11     4    34    1
    12     5    27   ar
    13     5     6   ar
    14     6     7   ar
    15     6    35    1
    16     7     8    1
    17     7    25   ar
    18     8     9   am
    19     8    36    1
    20     9    10    2
    21     9    11    1
    22    11    12    2
    23    11    13   am
    24    13    24    1
    25    13    14    1
    26    14    15    1
    27    14    37    1
    28    14    38    1
    29    15    16    1
    30    15    39    1
    31    15    40    1
    32    16    17    1
    33    16    23    1
    34    16    41    1
    35    17    22   ar
    36    17    18   ar
    37    18    19   ar
    38    18    42    1
    39    19    20   ar
    40    19    43    1
    41    20    21   ar
    42    21    22   ar
    43    21    44    1
    44    22    45    1
    45    23    24    1
    46    23    46    1
    47    23    47    1
    48    24    48    1
    49    24    49    1
    50    25    26   ar
    51    25    50    1
    52    26    27   ar
    53    26    51    1
    54    27    28    1
@<TRIPOS>SUBSTRUCTURE
     1 ZINC000192150625        1 TEMP              0 ****  ****    0 ROOT


##########                                Name:    ZINC000329637067
##########                DOCK_Rotatable_Bonds:                   5
##########                         Heavy_Atoms:                  26
##########                    Molecular_Weight:             362.429
##########                DOCK_Rotatable_Bonds:                   5
##########                       Formal_Charge:           0.0199998
##########                     HBond_Acceptors:                   8
##########                        HBond_Donors:                   0
##########                         Heavy_Atoms:                  26
##########                          Grid_Score:          -29.385639
##########                     Grid_vdw_energy:          -30.123356
##########                      Grid_es_energy:            0.737716
##########           Internal_energy_repulsive:          126.609634

@<TRIPOS>MOLECULE
ZINC000329637067
 52 54 1 0 0
SMALL
USER_CHARGES


@<TRIPOS>ATOM
      1 C1         -8.8935    3.1007   52.6968 C.3     1  ZINC000329637067   -0.1300
      2 C2         -7.6294    2.3122   52.4699 C.2     1  ZINC000329637067    0.2200
      3 C3         -6.4148    2.9180   52.5599 C.2     1  ZINC000329637067   -0.2900
      4 C4         -5.2599    2.1603   52.3441 C.2     1  ZINC000329637067    0.2800
      5 C5         -3.9026    2.8083   52.4386 C.3     1  ZINC000329637067   -0.1200
      6 N6         -5.3611    0.8780   52.0584 N.2     1  ZINC000329637067   -0.5500
      7 C7         -6.5562    0.2889   51.9715 C.2     1  ZINC000329637067    0.6400
      8 O8         -6.6225   -0.8995   51.7056 O.2     1  ZINC000329637067   -0.5300
      9 N9         -7.6888    0.9865   52.1786 N.am    1  ZINC000329637067   -0.5000
     10 C10        -8.9882    0.3176   52.0780 C.3     1  ZINC000329637067    0.0700
     11 C11        -9.4158   -0.1572   53.4429 C.2     1  ZINC000329637067    0.5100
     12 O12        -8.7989    0.1918   54.4271 O.2     1  ZINC000329637067   -0.5200
     13 N13       -10.4838   -0.9694   53.5699 N.am    1  ZINC000329637067   -0.6100
     14 C14       -11.2412   -1.4006   52.3870 C.3     1  ZINC000329637067    0.1000
     15 C15       -11.3293   -2.9299   52.3884 C.3     1  ZINC000329637067   -0.1400
     16 C16       -11.9197   -3.4017   53.7192 C.3     1  ZINC000329637067   -0.1000
     17 C17       -11.0045   -2.9696   54.8670 C.3     1  ZINC000329637067   -0.1200
     18 H18       -10.0104   -3.3912   54.7182 H       1  ZINC000329637067    0.1000
     19 C19       -11.5696   -3.4631   56.1740 C.2     1  ZINC000329637067    0.5300
     20 O20       -10.9669   -4.2939   56.8200 O.2     1  ZINC000329637067   -0.5300
     21 N21       -12.7447   -2.9813   56.6249 N.am    1  ZINC000329637067   -0.6200
     22 C22       -13.4971   -1.9776   55.8556 C.3     1  ZINC000329637067    0.0800
     23 C23       -14.9444   -2.4624   55.7136 C.3     1  ZINC000329637067    0.0500
     24 O24       -15.4603   -2.7890   57.0064 O.3     1  ZINC000329637067   -0.3800
     25 C25       -14.7699   -3.8572   57.6592 C.3     1  ZINC000329637067    0.0500
     26 C26       -13.3164   -3.4480   57.8980 C.3     1  ZINC000329637067    0.0700
     27 C27       -10.9090   -1.4456   54.8931 C.3     1  ZINC000329637067    0.1200
     28 H28        -9.4803    2.6278   53.4843 H       1  ZINC000329637067    0.0900
     29 H29        -8.6388    4.1179   52.9944 H       1  ZINC000329637067    0.1000
     30 H30        -9.4758    3.1266   51.7757 H       1  ZINC000329637067    0.0900
     31 H31        -6.3436    3.9699   52.7943 H       1  ZINC000329637067    0.1600
     32 H32        -3.5369    2.7379   53.4631 H       1  ZINC000329637067    0.1000
     33 H33        -3.2093    2.2987   51.7695 H       1  ZINC000329637067    0.0900
     34 H34        -3.9799    3.8570   52.1516 H       1  ZINC000329637067    0.0900
     35 H35        -9.7278    1.0171   51.6885 H       1  ZINC000329637067    0.1200
     36 H36        -8.9062   -0.5363   51.4055 H       1  ZINC000329637067    0.1300
     37 H37       -12.2448   -0.9767   52.4213 H       1  ZINC000329637067    0.0800
     38 H38       -10.7312   -1.0647   51.4841 H       1  ZINC000329637067    0.0900
     39 H39       -11.9695   -3.2582   51.5696 H       1  ZINC000329637067    0.0900
     40 H40       -10.3322   -3.3519   52.2628 H       1  ZINC000329637067    0.0700
     41 H41       -12.9067   -2.9597   53.8556 H       1  ZINC000329637067    0.0800
     42 H42       -12.0064   -4.4882   53.7131 H       1  ZINC000329637067    0.0800
     43 H43       -13.4796   -1.0231   56.3816 H       1  ZINC000329637067    0.0800
     44 H44       -13.0504   -1.8614   54.8681 H       1  ZINC000329637067    0.1000
     45 H45       -15.5507   -1.6734   55.2685 H       1  ZINC000329637067    0.1100
     46 H46       -14.9715   -3.3466   55.0769 H       1  ZINC000329637067    0.0600
     47 H47       -15.2505   -4.0716   58.6138 H       1  ZINC000329637067    0.1100
     48 H48       -14.7963   -4.7464   57.0295 H       1  ZINC000329637067    0.0600
     49 H49       -12.7496   -4.3036   58.2649 H       1  ZINC000329637067    0.1000
     50 H50       -13.2777   -2.6405   58.6293 H       1  ZINC000329637067    0.0800
     51 H51       -10.1819   -1.1378   55.6448 H       1  ZINC000329637067    0.1000
     52 H52       -11.8849   -1.0223   55.1311 H       1  ZINC000329637067    0.0800
@<TRIPOS>BOND
     1     1     2    1
     2     1    28    1
     3     1    29    1
     4     1    30    1
     5     2     9    1
     6     2     3    2
     7     3     4    1
     8     3    31    1
     9     4     5    1
    10     4     6    2
    11     5    32    1
    12     5    33    1
    13     5    34    1
    14     6     7    1
    15     7     8    2
    16     7     9   am
    17     9    10    1
    18    10    11    1
    19    10    35    1
    20    10    36    1
    21    11    12    2
    22    11    13   am
    23    13    27    1
    24    13    14    1
    25    14    15    1
    26    14    37    1
    27    14    38    1
    28    15    16    1
    29    15    39    1
    30    15    40    1
    31    16    17    1
    32    16    41    1
    33    16    42    1
    34    17    18    1
    35    17    19    1
    36    17    27    1
    37    19    20    2
    38    19    21   am
    39    21    26    1
    40    21    22    1
    41    22    23    1
    42    22    43    1
    43    22    44    1
    44    23    24    1
    45    23    45    1
    46    23    46    1
    47    24    25    1
    48    25    26    1
    49    25    47    1
    50    25    48    1
    51    26    49    1
    52    26    50    1
    53    27    51    1
    54    27    52    1
@<TRIPOS>SUBSTRUCTURE
     1 ZINC000329637067        1 TEMP              0 ****  ****    0 ROOT


##########                                Name:    ZINC000425987417
##########                DOCK_Rotatable_Bonds:                   9
##########                         Heavy_Atoms:                  25
##########                    Molecular_Weight:             357.419
##########                DOCK_Rotatable_Bonds:                   9
##########                       Formal_Charge:         -0.00999992
##########                     HBond_Acceptors:                   7
##########                        HBond_Donors:                   1
##########                         Heavy_Atoms:                  25
##########                          Grid_Score:          -29.381462
##########                     Grid_vdw_energy:          -29.133400
##########                      Grid_es_energy:           -0.248062
##########           Internal_energy_repulsive:           11.338290

@<TRIPOS>MOLECULE
ZINC000425987417
 51 52 1 0 0
SMALL
USER_CHARGES


@<TRIPOS>ATOM
      1 C1        -13.8285   -5.3006   56.4125 C.3     1  ZINC000425987417   -0.1500
      2 C2        -14.1095   -3.8201   56.1477 C.3     1  ZINC000425987417    0.0400
      3 N3        -13.6659   -3.0238   57.2997 N.3     1  ZINC000425987417   -0.5300
      4 C4        -12.8688   -1.8687   56.8657 C.3     1  ZINC000425987417    0.0400
      5 C5        -11.4363   -2.3189   56.5723 C.3     1  ZINC000425987417    0.1400
      6 N6        -10.8512   -1.4496   55.5485 N.am    1  ZINC000425987417   -0.7500
      7 C7        -10.5050   -1.9589   54.3496 C.2     1  ZINC000425987417    0.7200
      8 O8        -10.6784   -3.1397   54.1178 O.2     1  ZINC000425987417   -0.5800
      9 N9         -9.9668   -1.1591   53.4077 N.am    1  ZINC000425987417   -0.6200
     10 C10        -9.5780   -1.6843   52.0884 C.3     1  ZINC000425987417    0.1300
     11 C11        -8.0628   -1.5408   51.9538 C.3     1  ZINC000425987417   -0.1000
     12 C12        -7.6165   -0.1615   52.3617 C.ar    1  ZINC000425987417   -0.0600
     13 C13        -6.3775    0.2748   51.9094 C.ar    1  ZINC000425987417   -0.1200
     14 C14        -5.9046    1.5240   52.2543 C.ar    1  ZINC000425987417   -0.1100
     15 C15        -6.6675    2.3502   53.0580 C.ar    1  ZINC000425987417   -0.1200
     16 C16        -7.9001    1.9207   53.5059 C.ar    1  ZINC000425987417   -0.1100
     17 C17        -8.3795    0.6664   53.1549 C.ar    1  ZINC000425987417   -0.0900
     18 C18        -9.7506    0.2707   53.6540 C.3     1  ZINC000425987417    0.1800
     19 H19        -9.8183    0.4688   54.7237 H       1  ZINC000425987417    0.0900
     20 C20       -10.8154    1.0856   52.9169 C.3     1  ZINC000425987417   -0.1600
     21 C21       -14.8099   -2.5970   58.1165 C.3     1  ZINC000425987417    0.0500
     22 C22       -14.3656   -2.4356   59.5716 C.3     1  ZINC000425987417   -0.1600
     23 C23       -15.5679   -2.0399   60.4311 C.3     1  ZINC000425987417    0.4500
     24 F24       -16.1274   -0.8577   59.9344 F       1  ZINC000425987417   -0.1800
     25 F25       -16.5243   -3.0602   60.3934 F       1  ZINC000425987417   -0.1800
     26 F26       -15.1515   -1.8397   61.7516 F       1  ZINC000425987417   -0.1900
     27 H27       -14.4042   -5.6307   57.2771 H       1  ZINC000425987417    0.0500
     28 H28       -14.1155   -5.8867   55.5394 H       1  ZINC000425987417    0.0600
     29 H29       -12.7654   -5.4390   56.6094 H       1  ZINC000425987417    0.0700
     30 H30       -13.5694   -3.5015   55.2562 H       1  ZINC000425987417    0.0800
     31 H31       -15.1791   -3.6748   55.9958 H       1  ZINC000425987417    0.0400
     32 H32       -13.3078   -1.4428   55.9635 H       1  ZINC000425987417    0.0500
     33 H33       -12.8591   -1.1169   57.6549 H       1  ZINC000425987417    0.0800
     34 H34       -10.8423   -2.2574   57.4840 H       1  ZINC000425987417    0.0800
     35 H35       -11.4453   -3.3481   56.2132 H       1  ZINC000425987417    0.0700
     36 H36       -10.7130   -0.5075   55.7335 H       1  ZINC000425987417    0.3900
     37 H37        -9.8571   -2.7353   52.0131 H       1  ZINC000425987417    0.1000
     38 H38       -10.0737   -1.1132   51.3035 H       1  ZINC000425987417    0.0700
     39 H39        -7.5748   -2.2785   52.5907 H       1  ZINC000425987417    0.0800
     40 H40        -7.7767   -1.7182   50.9170 H       1  ZINC000425987417    0.0900
     41 H41        -5.7791   -0.3698   51.2827 H       1  ZINC000425987417    0.1200
     42 H42        -4.9406    1.8554   51.8975 H       1  ZINC000425987417    0.1200
     43 H43        -6.3004    3.3275   53.3345 H       1  ZINC000425987417    0.1200
     44 H44        -8.4963    2.5656   54.1344 H       1  ZINC000425987417    0.1200
     45 H45       -10.7472    0.8890   51.8470 H       1  ZINC000425987417    0.0700
     46 H46       -11.8042    0.8007   53.2764 H       1  ZINC000425987417    0.0600
     47 H47       -10.6533    2.1473   53.1023 H       1  ZINC000425987417    0.0700
     48 H48       -15.1871   -1.6446   57.7441 H       1  ZINC000425987417    0.0500
     49 H49       -15.5980   -3.3477   58.0583 H       1  ZINC000425987417    0.0900
     50 H50       -13.9554   -3.3787   59.9330 H       1  ZINC000425987417    0.1200
     51 H51       -13.6028   -1.6597   59.6347 H       1  ZINC000425987417    0.1100
@<TRIPOS>BOND
     1     1     2    1
     2     1    27    1
     3     1    28    1
     4     1    29    1
     5     2     3    1
     6     2    30    1
     7     2    31    1
     8     3     4    1
     9     3    21    1
    10     4     5    1
    11     4    32    1
    12     4    33    1
    13     5     6    1
    14     5    34    1
    15     5    35    1
    16     6     7   am
    17     6    36    1
    18     7     8    2
    19     7     9   am
    20     9    18    1
    21     9    10    1
    22    10    11    1
    23    10    37    1
    24    10    38    1
    25    11    12    1
    26    11    39    1
    27    11    40    1
    28    12    17   ar
    29    12    13   ar
    30    13    14   ar
    31    13    41    1
    32    14    15   ar
    33    14    42    1
    34    15    16   ar
    35    15    43    1
    36    16    17   ar
    37    16    44    1
    38    17    18    1
    39    18    19    1
    40    18    20    1
    41    20    45    1
    42    20    46    1
    43    20    47    1
    44    21    22    1
    45    21    48    1
    46    21    49    1
    47    22    23    1
    48    22    50    1
    49    22    51    1
    50    23    24    1
    51    23    25    1
    52    23    26    1
@<TRIPOS>SUBSTRUCTURE
     1 ZINC000425987417        1 TEMP              0 ****  ****    0 ROOT


##########                                Name:    ZINC000460163972
##########                DOCK_Rotatable_Bonds:                   7
##########                         Heavy_Atoms:                  28
##########                    Molecular_Weight:             408.469
##########                DOCK_Rotatable_Bonds:                   7
##########                       Formal_Charge:          -0.0100001
##########                     HBond_Acceptors:                   8
##########                        HBond_Donors:                   2
##########                         Heavy_Atoms:                  28
##########                          Grid_Score:          -29.357252
##########                     Grid_vdw_energy:          -29.224859
##########                      Grid_es_energy:           -0.132393
##########           Internal_energy_repulsive:           50.510712

@<TRIPOS>MOLECULE
ZINC000460163972
 50 52 1 0 0
SMALL
USER_CHARGES


@<TRIPOS>ATOM
      1 C1          2.1048    0.3432   48.4855 C.3     1  ZINC000460163972   -0.1400
      2 C2          1.2365    0.9451   49.5600 C.ar    1  ZINC000460163972    0.0100
      3 C3          1.7234    1.0760   50.8475 C.ar    1  ZINC000460163972   -0.1300
      4 C4          0.9300    1.6273   51.8348 C.ar    1  ZINC000460163972   -0.0600
      5 C5         -0.3574    2.0505   51.5331 C.ar    1  ZINC000460163972    0.1100
      6 N6         -1.1635    2.6098   52.5308 N.am    1  ZINC000460163972   -0.6700
      7 C7         -0.9071    3.8519   52.9869 C.2     1  ZINC000460163972    0.5200
      8 O8          0.0224    4.4849   52.5324 O.2     1  ZINC000460163972   -0.5100
      9 C9         -1.7752    4.4543   54.0614 C.3     1  ZINC000460163972   -0.0700
     10 H10        -1.6867    5.5403   54.0336 H       1  ZINC000460163972    0.1200
     11 C11        -3.2328    4.0550   53.8228 C.3     1  ZINC000460163972   -0.1500
     12 C12        -1.3299    3.9483   55.4092 C.ar    1  ZINC000460163972   -0.0600
     13 C13        -0.3740    4.6432   56.1260 C.ar    1  ZINC000460163972   -0.0700
     14 C14         0.0363    4.1810   57.3628 C.ar    1  ZINC000460163972   -0.1200
     15 C15        -0.5104    3.0218   57.8844 C.ar    1  ZINC000460163972    0.0700
     16 F16        -0.1105    2.5698   59.0930 F       1  ZINC000460163972   -0.1300
     17 C17        -1.4700    2.3249   57.1653 C.ar    1  ZINC000460163972    0.0700
     18 F18        -2.0053    1.1929   57.6725 F       1  ZINC000460163972   -0.1300
     19 C19        -1.8819    2.7927   55.9300 C.ar    1  ZINC000460163972   -0.1200
     20 C20        -0.8435    1.9180   50.2387 C.ar    1  ZINC000460163972    0.0000
     21 C21        -2.2402    2.3765   49.9068 C.3     1  ZINC000460163972   -0.1500
     22 C22        -0.0437    1.3704   49.2552 C.ar    1  ZINC000460163972   -0.6700
     23 S23        -0.6591    1.2024   47.6127 S.o2    1  ZINC000460163972    2.7000
     24 O24        -0.9456   -0.1774   47.4307 O.2     1  ZINC000460163972   -0.9500
     25 O25        -1.6287    2.2269   47.4407 O.2     1  ZINC000460163972   -0.9500
     26 N26         0.5876    1.5609   46.5832 N.am    1  ZINC000460163972   -1.0900
     27 C27         1.2186    2.8821   46.6292 C.3     1  ZINC000460163972    0.0800
     28 C28         2.0821    3.2945   45.4352 C.3     1  ZINC000460163972   -0.1800
     29 C29         0.7121    3.9414   45.6482 C.3     1  ZINC000460163972   -0.1900
     30 H30         2.6010    1.1396   47.9308 H       1  ZINC000460163972    0.1000
     31 H31         2.8543   -0.3025   48.9431 H       1  ZINC000460163972    0.0800
     32 H32         1.4870   -0.2428   47.8051 H       1  ZINC000460163972    0.0700
     33 H33         2.7250    0.7467   51.0815 H       1  ZINC000460163972    0.1400
     34 H34         1.3108    1.7287   52.8404 H       1  ZINC000460163972    0.1600
     35 H35        -1.9068    2.1036   52.8943 H       1  ZINC000460163972    0.4100
     36 H36        -3.8606    4.4907   54.6000 H       1  ZINC000460163972    0.0800
     37 H37        -3.5549    4.4210   52.8478 H       1  ZINC000460163972    0.0700
     38 H38        -3.3213    2.9690   53.8506 H       1  ZINC000460163972    0.0700
     39 H39         0.0532    5.5479   55.7194 H       1  ZINC000460163972    0.1400
     40 H40         0.7838    4.7244   57.9216 H       1  ZINC000460163972    0.1500
     41 H41        -2.6293    2.2510   55.3691 H       1  ZINC000460163972    0.1500
     42 H42        -2.2020    3.3796   49.4822 H       1  ZINC000460163972    0.1000
     43 H43        -2.6849    1.6925   49.1839 H       1  ZINC000460163972    0.1000
     44 H44        -2.8439    2.3888   50.8143 H       1  ZINC000460163972    0.0700
     45 H45         0.8999    0.8959   45.9498 H       1  ZINC000460163972    0.4200
     46 H46         1.5313    3.2198   47.6172 H       1  ZINC000460163972    0.1300
     47 H47         2.9632    3.9034   45.6378 H       1  ZINC000460163972    0.1100
     48 H48         2.1807    2.5826   44.6157 H       1  ZINC000460163972    0.1000
     49 H49        -0.0907    3.6552   44.9687 H       1  ZINC000460163972    0.1000
     50 H50         0.6918    4.9760   45.9909 H       1  ZINC000460163972    0.1000
@<TRIPOS>BOND
     1     1     2    1
     2     1    30    1
     3     1    31    1
     4     1    32    1
     5     2    22   ar
     6     2     3   ar
     7     3     4   ar
     8     3    33    1
     9     4     5   ar
    10     4    34    1
    11     5     6    1
    12     5    20   ar
    13     6     7   am
    14     6    35    1
    15     7     8    2
    16     7     9    1
    17     9    10    1
    18     9    11    1
    19     9    12    1
    20    11    36    1
    21    11    37    1
    22    11    38    1
    23    12    19   ar
    24    12    13   ar
    25    13    14   ar
    26    13    39    1
    27    14    15   ar
    28    14    40    1
    29    15    16    1
    30    15    17   ar
    31    17    18    1
    32    17    19   ar
    33    19    41    1
    34    20    21    1
    35    20    22   ar
    36    21    42    1
    37    21    43    1
    38    21    44    1
    39    22    23    1
    40    23    24    2
    41    23    25    2
    42    23    26   am
    43    26    27    1
    44    26    45    1
    45    27    29    1
    46    27    28    1
    47    27    46    1
    48    28    29    1
    49    28    47    1
    50    28    48    1
    51    29    49    1
    52    29    50    1
@<TRIPOS>SUBSTRUCTURE
     1 ZINC000460163972        1 TEMP              0 ****  ****    0 ROOT


##########                                Name:    ZINC000962855438
##########                DOCK_Rotatable_Bonds:                   7
##########                         Heavy_Atoms:                  27
##########                    Molecular_Weight:             370.448
##########                DOCK_Rotatable_Bonds:                   7
##########                       Formal_Charge:           0.0300005
##########                     HBond_Acceptors:                   6
##########                        HBond_Donors:                   2
##########                         Heavy_Atoms:                  27
##########                          Grid_Score:          -29.343639
##########                     Grid_vdw_energy:          -28.156750
##########                      Grid_es_energy:           -1.186890
##########           Internal_energy_repulsive:            9.140389

@<TRIPOS>MOLECULE
ZINC000962855438
 53 56 1 0 0
SMALL
USER_CHARGES


@<TRIPOS>ATOM
      1 C1         -8.6436    0.1099   63.0464 C.3     1  ZINC000962855438   -0.1100
      2 C2        -10.1396    0.1763   63.2164 C.2     1  ZINC000962855438   -0.1700
      3 C3        -11.0222   -0.4213   62.2027 C.2     1  ZINC000962855438    0.5600
      4 O4        -12.2296   -0.3494   62.3292 O.2     1  ZINC000962855438   -0.5400
      5 N5        -10.4928   -1.0485   61.1336 N.am    1  ZINC000962855438   -0.7100
      6 C6        -11.3719   -1.6452   60.1249 C.3     1  ZINC000962855438    0.1500
      7 H7        -12.2171   -2.1481   60.5946 H       1  ZINC000962855438    0.1200
      8 C8        -10.5865   -2.6168   59.2090 C.3     1  ZINC000962855438    0.1000
      9 N9        -11.3547   -2.6535   57.9512 N.am    1  ZINC000962855438   -0.6100
     10 C10       -11.3435   -3.6584   57.0530 C.2     1  ZINC000962855438    0.5800
     11 O11       -10.6563   -4.6420   57.2498 O.2     1  ZINC000962855438   -0.5200
     12 C12       -12.1648   -3.5647   55.8310 C.ar    1  ZINC000962855438   -0.1500
     13 C13       -13.4357   -4.1388   55.7978 C.ar    1  ZINC000962855438   -0.0600
     14 C14       -14.2050   -4.0537   54.6574 C.ar    1  ZINC000962855438   -0.1500
     15 C15       -13.7144   -3.3994   53.5384 C.ar    1  ZINC000962855438   -0.0500
     16 C16       -12.4600   -2.8316   53.5593 C.ar    1  ZINC000962855438   -0.1800
     17 C17       -11.6700   -2.8913   54.6994 C.ar    1  ZINC000962855438    0.1600
     18 O18       -10.4854   -2.2524   54.5133 O.3     1  ZINC000962855438   -0.2800
     19 C19       -10.2374   -2.1145   53.1038 C.3     1  ZINC000962855438    0.0700
     20 H20        -9.6790   -2.9703   52.7244 H       1  ZINC000962855438    0.0900
     21 C21        -9.4931   -0.8105   52.8093 C.3     1  ZINC000962855438   -0.1500
     22 C22       -11.6668   -2.0780   52.5089 C.3     1  ZINC000962855438   -0.1100
     23 C23       -12.1356   -1.4129   57.8393 C.3     1  ZINC000962855438    0.0700
     24 C24       -11.8551   -0.5783   59.1073 C.3     1  ZINC000962855438    0.0900
     25 H25       -12.7657   -0.0931   59.4588 H       1  ZINC000962855438    0.0900
     26 O26       -10.8322    0.3885   58.8600 O.3     1  ZINC000962855438   -0.5600
     27 C27       -10.6616    0.7752   64.2829 C.2     1  ZINC000962855438   -0.0600
     28 C28       -12.0530    1.0450   64.8155 C.3     1  ZINC000962855438   -0.1000
     29 C29       -11.4611    2.2583   65.5497 C.3     1  ZINC000962855438   -0.1400
     30 C30       -10.1300    1.4856   65.5096 C.3     1  ZINC000962855438   -0.1100
     31 H31        -8.3013    0.9859   62.4956 H       1  ZINC000962855438    0.0700
     32 H32        -8.1673    0.0879   64.0266 H       1  ZINC000962855438    0.0700
     33 H33        -8.3804   -0.7923   62.4942 H       1  ZINC000962855438    0.0700
     34 H34        -9.5298   -1.1048   61.0321 H       1  ZINC000962855438    0.4100
     35 H35        -9.5806   -2.2383   59.0282 H       1  ZINC000962855438    0.0800
     36 H36       -10.5444   -3.6097   59.6568 H       1  ZINC000962855438    0.0900
     37 H37       -13.8177   -4.6516   56.6681 H       1  ZINC000962855438    0.1400
     38 H38       -15.1896   -4.4971   54.6356 H       1  ZINC000962855438    0.1400
     39 H39       -14.3186   -3.3349   52.6455 H       1  ZINC000962855438    0.1300
     40 H40        -8.5278   -0.8209   53.3152 H       1  ZINC000962855438    0.0700
     41 H41        -9.3390   -0.7150   51.7345 H       1  ZINC000962855438    0.0800
     42 H42       -10.0825    0.0332   53.1682 H       1  ZINC000962855438    0.0700
     43 H43       -11.7036   -2.5974   51.5514 H       1  ZINC000962855438    0.1000
     44 H44       -12.0206   -1.0520   52.4078 H       1  ZINC000962855438    0.1000
     45 H45       -11.8253   -0.8582   56.9537 H       1  ZINC000962855438    0.0800
     46 H46       -13.1982   -1.6479   57.7785 H       1  ZINC000962855438    0.0800
     47 H47       -10.5317    0.8544   59.6522 H       1  ZINC000962855438    0.3900
     48 H48       -12.7718    1.3125   64.0409 H       1  ZINC000962855438    0.0900
     49 H49       -12.4216    0.2679   65.4851 H       1  ZINC000962855438    0.1000
     50 H50       -11.4613    3.1740   64.9584 H       1  ZINC000962855438    0.0900
     51 H51       -11.8554    2.3994   66.5560 H       1  ZINC000962855438    0.0800
     52 H52        -9.9808    0.8299   66.3675 H       1  ZINC000962855438    0.1000
     53 H53        -9.2656    2.1170   65.3040 H       1  ZINC000962855438    0.0800
@<TRIPOS>BOND
     1     1     2    1
     2     1    31    1
     3     1    32    1
     4     1    33    1
     5     2     3    1
     6     2    27    2
     7     3     4    2
     8     3     5   am
     9     5     6    1
    10     5    34    1
    11     6     7    1
    12     6    24    1
    13     6     8    1
    14     8     9    1
    15     8    35    1
    16     8    36    1
    17     9    10   am
    18     9    23    1
    19    10    11    2
    20    10    12    1
    21    12    17   ar
    22    12    13   ar
    23    13    14   ar
    24    13    37    1
    25    14    15   ar
    26    14    38    1
    27    15    16   ar
    28    15    39    1
    29    16    22    1
    30    16    17   ar
    31    17    18    1
    32    18    19    1
    33    19    20    1
    34    19    21    1
    35    19    22    1
    36    21    40    1
    37    21    41    1
    38    21    42    1
    39    22    43    1
    40    22    44    1
    41    23    24    1
    42    23    45    1
    43    23    46    1
    44    24    25    1
    45    24    26    1
    46    26    47    1
    47    27    30    1
    48    27    28    1
    49    28    29    1
    50    28    48    1
    51    28    49    1
    52    29    30    1
    53    29    50    1
    54    29    51    1
    55    30    52    1
    56    30    53    1
@<TRIPOS>SUBSTRUCTURE
     1 ZINC000962855438        1 TEMP              0 ****  ****    0 ROOT


##########                                Name:    ZINC000952280524
##########                DOCK_Rotatable_Bonds:                   9
##########                         Heavy_Atoms:                  25
##########                    Molecular_Weight:             348.486
##########                DOCK_Rotatable_Bonds:                   9
##########                       Formal_Charge:          -0.0100004
##########                     HBond_Acceptors:                   5
##########                        HBond_Donors:                   1
##########                         Heavy_Atoms:                  25
##########                          Grid_Score:          -29.329403
##########                     Grid_vdw_energy:          -29.581564
##########                      Grid_es_energy:            0.252161
##########           Internal_energy_repulsive:           21.773899

@<TRIPOS>MOLECULE
ZINC000952280524
 57 59 1 0 0
SMALL
USER_CHARGES


@<TRIPOS>ATOM
      1 C1        -15.3296   -0.7044   59.8872 C.3     1  ZINC000952280524   -0.1800
      2 C2        -15.4046   -2.1723   59.4624 C.3     1  ZINC000952280524    0.1400
      3 C3        -15.6847   -3.0444   60.6879 C.3     1  ZINC000952280524   -0.1900
      4 O4        -16.4559   -2.3391   58.5089 O.3     1  ZINC000952280524   -0.5500
      5 C5        -14.0741   -2.5897   58.8327 C.3     1  ZINC000952280524   -0.1200
      6 C6        -14.3190   -3.6694   57.8104 C.2     1  ZINC000952280524    0.5300
      7 O7        -15.0317   -4.6121   58.0828 O.2     1  ZINC000952280524   -0.5100
      8 N8        -13.7458   -3.5875   56.5933 N.am    1  ZINC000952280524   -0.6300
      9 C9        -13.8989   -4.5658   55.5065 C.3     1  ZINC000952280524    0.1000
     10 C10       -13.0446   -4.0705   54.3206 C.3     1  ZINC000952280524   -0.1300
     11 C11       -12.0108   -3.1362   55.0032 C.3     1  ZINC000952280524   -0.1000
     12 H12       -11.1798   -3.7084   55.4158 H       1  ZINC000952280524    0.0900
     13 C13       -11.5079   -2.0697   54.0284 C.3     1  ZINC000952280524   -0.0700
     14 C14       -10.7779   -0.9721   54.8057 C.3     1  ZINC000952280524   -0.1300
     15 C15       -10.3060    0.1112   53.8306 C.3     1  ZINC000952280524    0.1100
     16 N16        -9.4999   -0.5199   52.7767 N.am    1  ZINC000952280524   -0.6100
     17 C17        -8.2578   -0.0743   52.5026 C.2     1  ZINC000952280524    0.5500
     18 O18        -7.6005   -0.6051   51.6279 O.2     1  ZINC000952280524   -0.5500
     19 C19        -7.6972    1.0542   53.2617 C.2     1  ZINC000952280524   -0.2200
     20 C20        -8.0517    2.3000   52.9601 C.2     1  ZINC000952280524   -0.0300
     21 C21        -7.4788    3.4560   53.7389 C.3     1  ZINC000952280524   -0.1500
     22 C22        -8.3993    4.1602   54.7377 C.3     1  ZINC000952280524   -0.1700
     23 C23        -7.2692    3.2605   55.2419 C.3     1  ZINC000952280524   -0.1600
     24 C24       -10.0734   -1.6463   52.0277 C.3     1  ZINC000952280524    0.1000
     25 C25       -10.5478   -2.7098   53.0230 C.3     1  ZINC000952280524   -0.1300
     26 C26       -12.8666   -2.4989   56.1291 C.3     1  ZINC000952280524    0.1100
     27 H27       -14.5876   -0.5925   60.6778 H       1  ZINC000952280524    0.0700
     28 H28       -15.0439   -0.0927   59.0316 H       1  ZINC000952280524    0.0600
     29 H29       -16.3038   -0.3825   60.2552 H       1  ZINC000952280524    0.0600
     30 H30       -16.6325   -2.7471   61.1365 H       1  ZINC000952280524    0.0600
     31 H31       -15.7381   -4.0901   60.3853 H       1  ZINC000952280524    0.0800
     32 H32       -14.8828   -2.9172   61.4152 H       1  ZINC000952280524    0.0600
     33 H33       -17.3272   -2.0737   58.8337 H       1  ZINC000952280524    0.3700
     34 H34       -13.6153   -1.7278   58.3482 H       1  ZINC000952280524    0.1000
     35 H35       -13.4080   -2.9679   59.6082 H       1  ZINC000952280524    0.1000
     36 H36       -13.5457   -5.5432   55.8351 H       1  ZINC000952280524    0.0700
     37 H37       -14.9456   -4.6283   55.2088 H       1  ZINC000952280524    0.0700
     38 H38       -12.5447   -4.9057   53.8301 H       1  ZINC000952280524    0.0800
     39 H39       -13.6565   -3.5147   53.6101 H       1  ZINC000952280524    0.0800
     40 H40       -12.3546   -1.6358   53.4963 H       1  ZINC000952280524    0.0800
     41 H41       -11.4555   -0.5325   55.5376 H       1  ZINC000952280524    0.0800
     42 H42        -9.9165   -1.4005   55.3181 H       1  ZINC000952280524    0.0700
     43 H43       -11.1705    0.6028   53.3843 H       1  ZINC000952280524    0.0700
     44 H44        -9.7009    0.8444   54.3638 H       1  ZINC000952280524    0.0900
     45 H45        -6.9977    0.8710   54.0638 H       1  ZINC000952280524    0.1300
     46 H46        -8.7502    2.4832   52.1570 H       1  ZINC000952280524    0.1300
     47 H47        -6.7524    4.0686   53.2050 H       1  ZINC000952280524    0.1200
     48 H48        -8.2787    5.2364   54.8610 H       1  ZINC000952280524    0.1000
     49 H49        -9.4192    3.7874   54.8315 H       1  ZINC000952280524    0.1000
     50 H50        -7.5456    2.2957   55.6673 H       1  ZINC000952280524    0.1000
     51 H51        -6.4050    3.7448   55.6967 H       1  ZINC000952280524    0.1000
     52 H52       -10.9189   -1.2980   51.4344 H       1  ZINC000952280524    0.0700
     53 H53        -9.3148   -2.0728   51.3714 H       1  ZINC000952280524    0.0900
     54 H54        -9.6887   -3.1220   53.5522 H       1  ZINC000952280524    0.0700
     55 H55       -11.0617   -3.5071   52.4861 H       1  ZINC000952280524    0.0800
     56 H56       -13.4555   -1.6705   55.7353 H       1  ZINC000952280524    0.0700
     57 H57       -12.2282   -2.1578   56.9440 H       1  ZINC000952280524    0.0800
@<TRIPOS>BOND
     1     1     2    1
     2     1    27    1
     3     1    28    1
     4     1    29    1
     5     2     3    1
     6     2     4    1
     7     2     5    1
     8     3    30    1
     9     3    31    1
    10     3    32    1
    11     4    33    1
    12     5     6    1
    13     5    34    1
    14     5    35    1
    15     6     7    2
    16     6     8   am
    17     8    26    1
    18     8     9    1
    19     9    10    1
    20     9    36    1
    21     9    37    1
    22    10    11    1
    23    10    38    1
    24    10    39    1
    25    11    12    1
    26    11    13    1
    27    11    26    1
    28    13    25    1
    29    13    14    1
    30    13    40    1
    31    14    15    1
    32    14    41    1
    33    14    42    1
    34    15    16    1
    35    15    43    1
    36    15    44    1
    37    16    17   am
    38    16    24    1
    39    17    18    2
    40    17    19    1
    41    19    20    2
    42    19    45    1
    43    20    21    1
    44    20    46    1
    45    21    23    1
    46    21    22    1
    47    21    47    1
    48    22    23    1
    49    22    48    1
    50    22    49    1
    51    23    50    1
    52    23    51    1
    53    24    25    1
    54    24    52    1
    55    24    53    1
    56    25    54    1
    57    25    55    1
    58    26    56    1
    59    26    57    1
@<TRIPOS>SUBSTRUCTURE
     1 ZINC000952280524        1 TEMP              0 ****  ****    0 ROOT


##########                                Name:    ZINC000864730443
##########                DOCK_Rotatable_Bonds:                  10
##########                         Heavy_Atoms:                  25
##########                    Molecular_Weight:             356.462
##########                DOCK_Rotatable_Bonds:                  10
##########                       Formal_Charge:           0.0299988
##########                     HBond_Acceptors:                   7
##########                        HBond_Donors:                   2
##########                         Heavy_Atoms:                  25
##########                          Grid_Score:          -29.325853
##########                     Grid_vdw_energy:          -28.065020
##########                      Grid_es_energy:           -1.260833
##########           Internal_energy_repulsive:           20.602726

@<TRIPOS>MOLECULE
ZINC000864730443
 57 58 1 0 0
SMALL
USER_CHARGES


@<TRIPOS>ATOM
      1 C1          3.0765    4.9796   42.6861 C.3     1  ZINC000864730443   -0.1800
      2 C2          2.7453    5.2510   44.1549 C.3     1  ZINC000864730443    0.1400
      3 C3          3.4042    4.1845   45.0319 C.3     1  ZINC000864730443   -0.1800
      4 C4          3.2717    6.6324   44.5496 C.3     1  ZINC000864730443   -0.1400
      5 O5          1.3059    5.2100   44.3420 O.3     1  ZINC000864730443   -0.3600
      6 C6          0.8579    5.0101   45.5959 C.2     1  ZINC000864730443    0.6500
      7 O7          0.9597    5.8924   46.4252 O.2     1  ZINC000864730443   -0.5700
      8 N8          0.2966    3.8316   45.9311 N.am    1  ZINC000864730443   -0.7100
      9 C9         -0.1925    3.6148   47.2949 C.3     1  ZINC000864730443    0.1500
     10 C10        -0.1100    2.1255   47.6356 C.3     1  ZINC000864730443   -0.1300
     11 C11        -0.5840    1.9052   49.0490 C.2     1  ZINC000864730443    0.5300
     12 O12         0.1076    1.2880   49.8312 O.2     1  ZINC000864730443   -0.5300
     13 N13        -1.7764    2.3937   49.4437 N.am    1  ZINC000864730443   -0.7200
     14 C14        -2.2372    2.1794   50.8178 C.3     1  ZINC000864730443    0.1200
     15 C15        -1.8325    3.3742   51.6836 C.3     1  ZINC000864730443   -0.1300
     16 C16        -3.0580    3.8979   52.4351 C.3     1  ZINC000864730443    0.0800
     17 H17        -3.8167    4.2375   51.7300 H       1  ZINC000864730443    0.0800
     18 C18        -3.6357    2.7946   53.3569 C.3     1  ZINC000864730443   -0.1500
     19 C19        -4.3630    3.6548   54.4261 C.3     1  ZINC000864730443   -0.1600
     20 C20        -3.4484    4.8946   54.5267 C.3     1  ZINC000864730443    0.0500
     21 O21        -2.6825    4.9678   53.3169 O.3     1  ZINC000864730443   -0.3800
     22 C22        -0.9918    1.3296   46.6685 C.3     1  ZINC000864730443   -0.1000
     23 C23        -0.8406   -0.1647   46.9691 C.3     1  ZINC000864730443   -0.1600
     24 C24         0.6366   -0.5521   46.8611 C.3     1  ZINC000864730443    0.0600
     25 O25         1.4043    0.2464   47.7640 O.3     1  ZINC000864730443   -0.3700
     26 C26         1.3390    1.6498   47.5019 C.3     1  ZINC000864730443    0.0800
     27 H27         2.7016    3.9955   42.4049 H       1  ZINC000864730443    0.0900
     28 H28         2.6071    5.7394   42.0612 H       1  ZINC000864730443    0.0600
     29 H29         4.1570    5.0104   42.5457 H       1  ZINC000864730443    0.0700
     30 H30         4.4847    4.2154   44.8914 H       1  ZINC000864730443    0.0700
     31 H31         3.1682    4.3780   46.0783 H       1  ZINC000864730443    0.0600
     32 H32         3.0292    3.2004   44.7507 H       1  ZINC000864730443    0.0900
     33 H33         2.8022    7.3922   43.9247 H       1  ZINC000864730443    0.0700
     34 H34         3.0356    6.8258   45.5960 H       1  ZINC000864730443    0.0700
     35 H35         4.3521    6.6632   44.4091 H       1  ZINC000864730443    0.0800
     36 H36         0.2165    3.1269   45.2694 H       1  ZINC000864730443    0.4100
     37 H37         0.4204    4.1823   47.9952 H       1  ZINC000864730443    0.0900
     38 H38        -1.2281    3.9471   47.3665 H       1  ZINC000864730443    0.0800
     39 H39        -2.3295    2.8873   48.8181 H       1  ZINC000864730443    0.4000
     40 H40        -3.3224    2.0765   50.8251 H       1  ZINC000864730443    0.0700
     41 H41        -1.7835    1.2718   51.2159 H       1  ZINC000864730443    0.0700
     42 H42        -1.0726    3.0626   52.4003 H       1  ZINC000864730443    0.0800
     43 H43        -1.4308    4.1637   51.0485 H       1  ZINC000864730443    0.0800
     44 H44        -4.3394    2.1607   52.8175 H       1  ZINC000864730443    0.0900
     45 H45        -2.8393    2.2009   53.8057 H       1  ZINC000864730443    0.0800
     46 H46        -5.3600    3.9348   54.0862 H       1  ZINC000864730443    0.0800
     47 H47        -4.4105    3.1294   55.3800 H       1  ZINC000864730443    0.0800
     48 H48        -4.0551    5.7938   54.6336 H       1  ZINC000864730443    0.0700
     49 H49        -2.7811    4.7933   55.3825 H       1  ZINC000864730443    0.0700
     50 H50        -2.0332    1.6241   46.7982 H       1  ZINC000864730443    0.0800
     51 H51        -0.6803    1.5287   45.6430 H       1  ZINC000864730443    0.0800
     52 H52        -1.1987   -0.3714   47.9776 H       1  ZINC000864730443    0.0900
     53 H53        -1.4220   -0.7416   46.2498 H       1  ZINC000864730443    0.0800
     54 H54         0.7557   -1.6052   47.1158 H       1  ZINC000864730443    0.1000
     55 H55         0.9831   -0.3830   45.8416 H       1  ZINC000864730443    0.0500
     56 H56         1.6947    1.8475   46.4907 H       1  ZINC000864730443    0.0700
     57 H57         1.9642    2.1828   48.2181 H       1  ZINC000864730443    0.1000
@<TRIPOS>BOND
     1     1     2    1
     2     1    27    1
     3     1    28    1
     4     1    29    1
     5     2     3    1
     6     2     4    1
     7     2     5    1
     8     3    30    1
     9     3    31    1
    10     3    32    1
    11     4    33    1
    12     4    34    1
    13     4    35    1
    14     5     6    1
    15     6     7    2
    16     6     8   am
    17     8     9    1
    18     8    36    1
    19     9    10    1
    20     9    37    1
    21     9    38    1
    22    10    26    1
    23    10    11    1
    24    10    22    1
    25    11    12    2
    26    11    13   am
    27    13    14    1
    28    13    39    1
    29    14    15    1
    30    14    40    1
    31    14    41    1
    32    15    16    1
    33    15    42    1
    34    15    43    1
    35    16    17    1
    36    16    21    1
    37    16    18    1
    38    18    19    1
    39    18    44    1
    40    18    45    1
    41    19    20    1
    42    19    46    1
    43    19    47    1
    44    20    21    1
    45    20    48    1
    46    20    49    1
    47    22    23    1
    48    22    50    1
    49    22    51    1
    50    23    24    1
    51    23    52    1
    52    23    53    1
    53    24    25    1
    54    24    54    1
    55    24    55    1
    56    25    26    1
    57    26    56    1
    58    26    57    1
@<TRIPOS>SUBSTRUCTURE
     1 ZINC000864730443        1 TEMP              0 ****  ****    0 ROOT


##########                                Name:    ZINC001045438664
##########                DOCK_Rotatable_Bonds:                   6
##########                         Heavy_Atoms:                  26
##########                    Molecular_Weight:             352.439
##########                DOCK_Rotatable_Bonds:                   6
##########                       Formal_Charge:          -0.0099999
##########                     HBond_Acceptors:                   7
##########                        HBond_Donors:                   2
##########                         Heavy_Atoms:                  26
##########                          Grid_Score:          -29.311478
##########                     Grid_vdw_energy:          -28.257586
##########                      Grid_es_energy:           -1.053893
##########           Internal_energy_repulsive:           21.493433

@<TRIPOS>MOLECULE
ZINC001045438664
 50 53 1 0 0
SMALL
USER_CHARGES


@<TRIPOS>ATOM
      1 C1         -5.7962    0.7188   51.6521 C.3     1  ZINC001045438664   -0.1100
      2 C2         -7.1298    0.4988   52.3187 C.ar    1  ZINC001045438664    0.2100
      3 C3         -7.9636   -0.5167   51.8948 C.ar    1  ZINC001045438664   -0.3000
      4 C4         -9.1895   -0.6821   52.5434 C.ar    1  ZINC001045438664    0.4500
      5 N5        -10.0611   -1.6867   52.1556 N.pl3   1  ZINC001045438664   -0.7100
      6 C6        -11.2923   -1.9215   52.9139 C.3     1  ZINC001045438664    0.1500
      7 H7        -11.7036   -0.9673   53.2434 H       1  ZINC001045438664    0.0900
      8 C8        -10.9821   -2.7914   54.1336 C.3     1  ZINC001045438664   -0.1300
      9 C9        -12.2680   -3.0365   54.9257 C.3     1  ZINC001045438664   -0.1200
     10 C10       -13.2869   -3.7509   54.0355 C.3     1  ZINC001045438664   -0.1200
     11 C11       -13.5971   -2.8809   52.8157 C.3     1  ZINC001045438664   -0.1300
     12 C12       -12.3112   -2.6359   52.0237 C.3     1  ZINC001045438664    0.1400
     13 H13       -11.9000   -3.5900   51.6943 H       1  ZINC001045438664    0.1000
     14 N14       -12.6082   -1.8028   50.8559 N.am    1  ZINC001045438664   -0.7200
     15 C15       -13.1060   -0.5614   51.0226 C.2     1  ZINC001045438664    0.5700
     16 O16       -13.3098   -0.1337   52.1421 O.2     1  ZINC001045438664   -0.5200
     17 C17       -13.4041    0.2799   49.8442 C.ar    1  ZINC001045438664   -0.2500
     18 C18       -13.9237    1.5706   49.9944 C.ar    1  ZINC001045438664    0.1900
     19 N19       -14.1751    2.2882   48.9137 N.ar    1  ZINC001045438664   -0.5200
     20 C20       -13.9434    1.8046   47.7090 C.ar    1  ZINC001045438664    0.3200
     21 N21       -13.4550    0.5940   47.5220 N.ar    1  ZINC001045438664   -0.5200
     22 C22       -13.1692   -0.1897   48.5469 C.ar    1  ZINC001045438664    0.2100
     23 N23        -9.5063    0.1398   53.5394 N.ar    1  ZINC001045438664   -0.5800
     24 C24        -8.6794    1.0961   53.9111 C.ar    1  ZINC001045438664    0.4000
     25 C25        -9.0748    2.0069   55.0448 C.3     1  ZINC001045438664   -0.1100
     26 C26        -7.9598    2.5295   55.9528 C.3     1  ZINC001045438664   -0.1500
     27 C27        -8.6412    3.4716   54.9583 C.3     1  ZINC001045438664   -0.1500
     28 N28        -7.5140    1.2747   53.3227 N.ar    1  ZINC001045438664   -0.5600
     29 H29        -5.0346    0.1261   52.1588 H       1  ZINC001045438664    0.0800
     30 H30        -5.8576    0.4146   50.6072 H       1  ZINC001045438664    0.0800
     31 H31        -5.5317    1.7747   51.7082 H       1  ZINC001045438664    0.0800
     32 H32        -7.6755   -1.1667   51.0819 H       1  ZINC001045438664    0.1400
     33 H33        -9.8559   -2.2349   51.3820 H       1  ZINC001045438664    0.4100
     34 H34       -10.5709   -3.7456   53.8043 H       1  ZINC001045438664    0.0700
     35 H35       -10.2562   -2.2824   54.7678 H       1  ZINC001045438664    0.0700
     36 H36       -12.0471   -3.6563   55.7946 H       1  ZINC001045438664    0.0700
     37 H37       -12.6793   -2.0823   55.2550 H       1  ZINC001045438664    0.0700
     38 H38       -12.8756   -4.7051   53.7060 H       1  ZINC001045438664    0.0700
     39 H39       -14.2031   -3.9255   54.5996 H       1  ZINC001045438664    0.0700
     40 H40       -14.3230   -3.3899   52.1816 H       1  ZINC001045438664    0.0800
     41 H41       -14.0083   -1.9267   53.1451 H       1  ZINC001045438664    0.0700
     42 H42       -12.4467   -2.1446   49.9626 H       1  ZINC001045438664    0.4000
     43 H43       -14.1165    1.9735   50.9778 H       1  ZINC001045438664    0.1700
     44 H44       -14.1608    2.4193   46.8481 H       1  ZINC001045438664    0.2100
     45 H45       -12.7694   -1.1800   48.3857 H       1  ZINC001045438664    0.1800
     46 H46       -10.0401    1.7941   55.5040 H       1  ZINC001045438664    0.1300
     47 H47        -8.1915    2.6605   57.0098 H       1  ZINC001045438664    0.1000
     48 H48        -6.9403    2.2147   55.7303 H       1  ZINC001045438664    0.1100
     49 H49        -8.0699    3.7765   54.0815 H       1  ZINC001045438664    0.1000
     50 H50        -9.3211    4.2224   55.3610 H       1  ZINC001045438664    0.1000
@<TRIPOS>BOND
     1     1     2    1
     2     1    29    1
     3     1    30    1
     4     1    31    1
     5     2    28   ar
     6     2     3   ar
     7     3     4   ar
     8     3    32    1
     9     4     5    1
    10     4    23   ar
    11     5     6    1
    12     5    33    1
    13     6     7    1
    14     6    12    1
    15     6     8    1
    16     8     9    1
    17     8    34    1
    18     8    35    1
    19     9    10    1
    20     9    36    1
    21     9    37    1
    22    10    11    1
    23    10    38    1
    24    10    39    1
    25    11    12    1
    26    11    40    1
    27    11    41    1
    28    12    13    1
    29    12    14    1
    30    14    15   am
    31    14    42    1
    32    15    16    2
    33    15    17    1
    34    17    22   ar
    35    17    18   ar
    36    18    19   ar
    37    18    43    1
    38    19    20   ar
    39    20    21   ar
    40    20    44    1
    41    21    22   ar
    42    22    45    1
    43    23    24   ar
    44    24    25    1
    45    24    28   ar
    46    25    27    1
    47    25    26    1
    48    25    46    1
    49    26    27    1
    50    26    47    1
    51    26    48    1
    52    27    49    1
    53    27    50    1
@<TRIPOS>SUBSTRUCTURE
     1 ZINC001045438664        1 TEMP              0 ****  ****    0 ROOT


##########                                Name:    ZINC000504860563
##########                DOCK_Rotatable_Bonds:                   6
##########                         Heavy_Atoms:                  25
##########                    Molecular_Weight:             370.786
##########                DOCK_Rotatable_Bonds:                   6
##########                       Formal_Charge:                0.01
##########                     HBond_Acceptors:                   9
##########                        HBond_Donors:                   0
##########                         Heavy_Atoms:                  25
##########                          Grid_Score:          -29.295460
##########                     Grid_vdw_energy:          -28.933910
##########                      Grid_es_energy:           -0.361549
##########           Internal_energy_repulsive:           12.461117

@<TRIPOS>MOLECULE
ZINC000504860563
 42 44 1 0 0
SMALL
USER_CHARGES


@<TRIPOS>ATOM
      1 O1        -10.6641   -4.9201   58.5313 O.2     1  ZINC000504860563   -0.5100
      2 C2        -10.9350   -3.7417   58.4074 C.2     1  ZINC000504860563    0.5700
      3 C3        -10.3392   -2.7459   59.3234 C.ar    1  ZINC000504860563    0.0500
      4 N4         -9.0593   -2.4143   59.1951 N.ar    1  ZINC000504860563   -0.4100
      5 C5         -8.4915   -1.5336   59.9881 C.ar    1  ZINC000504860563    0.0600
      6 C6         -9.2107   -0.9107   60.9977 C.ar    1  ZINC000504860563   -0.1000
      7 C7        -10.5472   -1.2221   61.1721 C.ar    1  ZINC000504860563   -0.1700
      8 C8        -11.1285   -2.1546   60.3159 C.ar    1  ZINC000504860563    0.1400
      9 O9        -12.4359   -2.4912   60.4483 O.3     1  ZINC000504860563   -0.2600
     10 C10       -13.3136   -1.4912   60.9696 C.3     1  ZINC000504860563   -0.0100
     11 C11       -14.7544   -2.0042   60.9258 C.3     1  ZINC000504860563    0.2800
     12 F12       -15.1764   -2.0960   59.5951 F       1  ZINC000504860563   -0.1900
     13 F13       -14.8180   -3.2676   61.5234 F       1  ZINC000504860563   -0.1900
     14 N14       -11.7745   -3.3422   57.4315 N.am    1  ZINC000504860563   -0.6000
     15 C15       -12.1022   -1.9200   57.2617 C.3     1  ZINC000504860563    0.0800
     16 C16       -11.8169   -1.5182   55.8112 C.3     1  ZINC000504860563   -0.1500
     17 C17       -12.5752   -2.4549   54.8680 C.3     1  ZINC000504860563    0.1600
     18 N18       -12.3310   -2.0530   53.4806 N.pl3   1  ZINC000504860563   -0.3600
     19 C19       -13.2751   -1.7991   52.5490 C.2     1  ZINC000504860563    0.0700
     20 C20       -12.6418   -1.4597   51.4018 C.2     1  ZINC000504860563   -0.1900
     21 Cl21      -13.4040   -1.0386   49.9000 Cl      1  ZINC000504860563   -0.0400
     22 C22       -11.2638   -1.5078   51.6407 C.2     1  ZINC000504860563    0.0600
     23 N23       -11.0769   -1.8582   52.8875 N.2     1  ZINC000504860563   -0.2800
     24 C24       -12.0909   -3.8918   55.0753 C.3     1  ZINC000504860563   -0.1400
     25 C25       -12.3745   -4.3199   56.5136 C.3     1  ZINC000504860563    0.1200
     26 H26        -7.4480   -1.2911   59.8519 H       1  ZINC000504860563    0.1700
     27 H27        -8.7310   -0.1891   61.6423 H       1  ZINC000504860563    0.1500
     28 H28       -11.1275   -0.7501   61.9512 H       1  ZINC000504860563    0.1500
     29 H29       -13.0386   -1.2681   62.0006 H       1  ZINC000504860563    0.1000
     30 H30       -13.2316   -0.5862   60.3677 H       1  ZINC000504860563    0.1000
     31 H31       -15.4024   -1.3138   61.4656 H       1  ZINC000504860563    0.1300
     32 H32       -13.1567   -1.7589   57.4849 H       1  ZINC000504860563    0.0700
     33 H33       -11.4885   -1.3208   57.9343 H       1  ZINC000504860563    0.1600
     34 H34       -12.1456   -0.4920   55.6466 H       1  ZINC000504860563    0.0900
     35 H35       -10.7471   -1.5937   55.6164 H       1  ZINC000504860563    0.0700
     36 H36       -13.6428   -2.3975   55.0802 H       1  ZINC000504860563    0.1100
     37 H37       -14.3439   -1.8572   52.6933 H       1  ZINC000504860563    0.1800
     38 H38       -10.4884   -1.2899   50.9212 H       1  ZINC000504860563    0.1900
     39 H39       -12.6147   -4.5550   54.3869 H       1  ZINC000504860563    0.0900
     40 H40       -11.0186   -3.9450   54.8875 H       1  ZINC000504860563    0.0800
     41 H41       -11.9432   -5.3046   56.6935 H       1  ZINC000504860563    0.1000
     42 H42       -13.4514   -4.3546   56.6790 H       1  ZINC000504860563    0.0800
@<TRIPOS>BOND
     1     1     2    2
     2     2     3    1
     3     2    14   am
     4     3     8   ar
     5     3     4   ar
     6     4     5   ar
     7     5     6   ar
     8     5    26    1
     9     6     7   ar
    10     6    27    1
    11     7     8   ar
    12     7    28    1
    13     8     9    1
    14     9    10    1
    15    10    11    1
    16    10    29    1
    17    10    30    1
    18    11    12    1
    19    11    13    1
    20    11    31    1
    21    14    25    1
    22    14    15    1
    23    15    16    1
    24    15    32    1
    25    15    33    1
    26    16    17    1
    27    16    34    1
    28    16    35    1
    29    17    18    1
    30    17    24    1
    31    17    36    1
    32    18    23    1
    33    18    19    1
    34    19    20    2
    35    19    37    1
    36    20    21    1
    37    20    22    1
    38    22    23    2
    39    22    38    1
    40    24    25    1
    41    24    39    1
    42    24    40    1
    43    25    41    1
    44    25    42    1
@<TRIPOS>SUBSTRUCTURE
     1 ZINC000504860563        1 TEMP              0 ****  ****    0 ROOT


##########                                Name:    ZINC000951315041
##########                DOCK_Rotatable_Bonds:                   5
##########                         Heavy_Atoms:                  25
##########                    Molecular_Weight:             340.382
##########                DOCK_Rotatable_Bonds:                   5
##########                       Formal_Charge:          0.00999974
##########                     HBond_Acceptors:                   7
##########                        HBond_Donors:                   1
##########                         Heavy_Atoms:                  25
##########                          Grid_Score:          -29.288567
##########                     Grid_vdw_energy:          -30.516230
##########                      Grid_es_energy:            1.227663
##########           Internal_energy_repulsive:            9.488269

@<TRIPOS>MOLECULE
ZINC000951315041
 45 47 1 0 0
SMALL
USER_CHARGES


@<TRIPOS>ATOM
      1 C1         -6.5959   -1.1875   51.7020 C.3     1  ZINC000951315041    0.0500
      2 N2         -7.9453   -0.6861   51.9739 N.am    1  ZINC000951315041   -0.4900
      3 C3         -8.9698   -1.5549   52.0603 C.2     1  ZINC000951315041    0.1700
      4 C4        -10.2491   -1.1047   52.3152 C.2     1  ZINC000951315041   -0.2400
      5 C5        -11.3682   -2.0603   52.4090 C.2     1  ZINC000951315041    0.5800
      6 O6        -12.0588   -2.2855   51.4337 O.2     1  ZINC000951315041   -0.5200
      7 N7        -11.6256   -2.6842   53.5755 N.am    1  ZINC000951315041   -0.6000
      8 C8        -12.7371   -3.6390   53.6845 C.3     1  ZINC000951315041    0.1100
      9 C9        -13.6319   -3.2223   54.8560 C.3     1  ZINC000951315041   -0.1300
     10 C10       -12.7822   -3.0995   56.1231 C.3     1  ZINC000951315041   -0.1300
     11 C11       -11.7163   -2.0200   55.9218 C.3     1  ZINC000951315041    0.1300
     12 H12       -12.1991   -1.0705   55.6908 H       1  ZINC000951315041    0.1000
     13 N13       -10.9243   -1.8807   57.1463 N.am    1  ZINC000951315041   -0.7200
     14 C14       -11.3404   -1.0561   58.1278 C.2     1  ZINC000951315041    0.5700
     15 O15       -12.3722   -0.4270   57.9964 O.2     1  ZINC000951315041   -0.5200
     16 C16       -10.5421   -0.9168   59.3644 C.ar    1  ZINC000951315041   -0.1900
     17 C17       -11.1030   -0.3467   60.5133 C.ar    1  ZINC000951315041   -0.0100
     18 C18       -10.3134   -0.2398   61.6448 C.ar    1  ZINC000951315041   -0.1800
     19 C19        -9.0081   -0.6952   61.6050 C.ar    1  ZINC000951315041    0.1300
     20 N20        -8.5057   -1.2280   60.5073 N.ar    1  ZINC000951315041   -0.4900
     21 C21        -9.2184   -1.3568   59.4077 C.ar    1  ZINC000951315041    0.1400
     22 C22       -10.7963   -2.4273   54.7608 C.3     1  ZINC000951315041    0.1000
     23 C23       -10.4788    0.2820   52.4865 C.2     1  ZINC000951315041    0.0100
     24 C24        -9.4284    1.1406   52.3952 C.2     1  ZINC000951315041   -0.2300
     25 C25        -8.1401    0.6348   52.1386 C.2     1  ZINC000951315041    0.5100
     26 O26        -7.1946    1.4009   52.0563 O.2     1  ZINC000951315041   -0.5400
     27 H27        -5.8971   -0.3516   51.6714 H       1  ZINC000951315041    0.1100
     28 H28        -6.2999   -1.8798   52.4902 H       1  ZINC000951315041    0.0800
     29 H29        -6.5868   -1.7041   50.7423 H       1  ZINC000951315041    0.0800
     30 H30        -8.7893   -2.6115   51.9289 H       1  ZINC000951315041    0.1700
     31 H31       -13.3167   -3.6319   52.7615 H       1  ZINC000951315041    0.1000
     32 H32       -12.3432   -4.6395   53.8633 H       1  ZINC000951315041    0.0700
     33 H33       -14.0966   -2.2615   54.6351 H       1  ZINC000951315041    0.0700
     34 H34       -14.4056   -3.9748   55.0084 H       1  ZINC000951315041    0.0900
     35 H35       -13.4208   -2.8270   56.9634 H       1  ZINC000951315041    0.0800
     36 H36       -12.2981   -4.0540   56.3297 H       1  ZINC000951315041    0.0700
     37 H37       -10.1003   -2.3818   57.2507 H       1  ZINC000951315041    0.4000
     38 H38       -12.1255    0.0010   60.5164 H       1  ZINC000951315041    0.1500
     39 H39       -10.7123    0.1950   62.5494 H       1  ZINC000951315041    0.1500
     40 H40        -8.3896   -0.6129   62.4866 H       1  ZINC000951315041    0.1600
     41 H41        -8.7719   -1.7985   58.5290 H       1  ZINC000951315041    0.1600
     42 H42       -10.2451   -3.3282   55.0301 H       1  ZINC000951315041    0.0700
     43 H43       -10.0971   -1.6187   54.5477 H       1  ZINC000951315041    0.0900
     44 H44       -11.4735    0.6522   52.6862 H       1  ZINC000951315041    0.1400
     45 H45        -9.5809    2.2023   52.5220 H       1  ZINC000951315041    0.1600
@<TRIPOS>BOND
     1     1     2    1
     2     1    27    1
     3     1    28    1
     4     1    29    1
     5     2    25   am
     6     2     3    1
     7     3     4    2
     8     3    30    1
     9     4     5    1
    10     4    23    1
    11     5     6    2
    12     5     7   am
    13     7    22    1
    14     7     8    1
    15     8     9    1
    16     8    31    1
    17     8    32    1
    18     9    10    1
    19     9    33    1
    20     9    34    1
    21    10    11    1
    22    10    35    1
    23    10    36    1
    24    11    12    1
    25    11    13    1
    26    11    22    1
    27    13    14   am
    28    13    37    1
    29    14    15    2
    30    14    16    1
    31    16    21   ar
    32    16    17   ar
    33    17    18   ar
    34    17    38    1
    35    18    19   ar
    36    18    39    1
    37    19    20   ar
    38    19    40    1
    39    20    21   ar
    40    21    41    1
    41    22    42    1
    42    22    43    1
    43    23    24    2
    44    23    44    1
    45    24    25    1
    46    24    45    1
    47    25    26    2
@<TRIPOS>SUBSTRUCTURE
     1 ZINC000951315041        1 TEMP              0 ****  ****    0 ROOT


##########                                Name:    ZINC000537799672
##########                DOCK_Rotatable_Bonds:                   9
##########                         Heavy_Atoms:                  29
##########                    Molecular_Weight:             401.478
##########                DOCK_Rotatable_Bonds:                   9
##########                       Formal_Charge:        -4.47035e-07
##########                     HBond_Acceptors:                   6
##########                        HBond_Donors:                   1
##########                         Heavy_Atoms:                  29
##########                          Grid_Score:          -29.284018
##########                     Grid_vdw_energy:          -28.141235
##########                      Grid_es_energy:           -1.142782
##########           Internal_energy_repulsive:           16.384066

@<TRIPOS>MOLECULE
ZINC000537799672
 57 59 1 0 0
SMALL
USER_CHARGES


@<TRIPOS>ATOM
      1 C1         -9.2110    5.5050   57.3533 C.3     1  ZINC000537799672    0.0300
      2 O2         -9.9695    4.2941   57.3350 O.3     1  ZINC000537799672   -0.3800
      3 C3         -9.2693    3.1778   56.7823 C.3     1  ZINC000537799672    0.1200
      4 H4         -8.1957    3.3340   56.8875 H       1  ZINC000537799672    0.0900
      5 C5         -9.6682    1.9222   57.5140 C.ar    1  ZINC000537799672   -0.1300
      6 C6        -10.9332    1.8139   58.0611 C.ar    1  ZINC000537799672   -0.0600
      7 C7        -11.3001    0.6630   58.7323 C.ar    1  ZINC000537799672   -0.1500
      8 C8        -10.4005   -0.3821   58.8564 C.ar    1  ZINC000537799672    0.1000
      9 F9        -10.7583   -1.5079   59.5120 F       1  ZINC000537799672   -0.1400
     10 C10        -9.1339   -0.2728   58.3076 C.ar    1  ZINC000537799672   -0.1500
     11 C11        -8.7708    0.8772   57.6327 C.ar    1  ZINC000537799672   -0.0800
     12 C12        -9.6213    3.0378   55.3000 C.3     1  ZINC000537799672    0.1600
     13 H13        -9.4522    3.9888   54.7949 H       1  ZINC000537799672    0.1000
     14 C14       -11.0924    2.6408   55.1605 C.3     1  ZINC000537799672   -0.1600
     15 N15        -8.7774    2.0056   54.6929 N.am    1  ZINC000537799672   -0.7100
     16 C16        -8.6020    1.9784   53.3570 C.2     1  ZINC000537799672    0.5600
     17 O17        -9.1428    2.8110   52.6558 O.2     1  ZINC000537799672   -0.5400
     18 C18        -7.7516    0.9356   52.7441 C.ar    1  ZINC000537799672   -0.1400
     19 C19        -6.4028    1.1902   52.4919 C.ar    1  ZINC000537799672   -0.0800
     20 C20        -5.6146    0.2126   51.9202 C.ar    1  ZINC000537799672   -0.1300
     21 C21        -6.1586   -1.0176   51.5968 C.ar    1  ZINC000537799672   -0.0900
     22 C22        -7.4954   -1.2763   51.8440 C.ar    1  ZINC000537799672   -0.1100
     23 C23        -8.2929   -0.3097   52.4207 C.ar    1  ZINC000537799672   -0.0300
     24 C24        -9.7484   -0.5934   52.6896 C.3     1  ZINC000537799672    0.1100
     25 O25        -9.9008   -1.9543   53.0981 O.3     1  ZINC000537799672   -0.3800
     26 C26       -11.1763   -2.2497   53.6710 C.3     1  ZINC000537799672    0.0900
     27 C27       -12.2373   -2.2885   52.5670 C.3     1  ZINC000537799672   -0.1800
     28 C28       -13.5844   -2.6827   53.1781 C.3     1  ZINC000537799672    0.0600
     29 O29       -13.4580   -3.9476   53.8309 O.3     1  ZINC000537799672   -0.3800
     30 C30       -12.5138   -3.9588   54.9037 C.3     1  ZINC000537799672    0.0600
     31 C31       -11.1237   -3.6158   54.3618 C.3     1  ZINC000537799672   -0.1500
     32 H32        -8.8656    5.7325   56.3449 H       1  ZINC000537799672    0.0500
     33 H33        -9.8370    6.3204   57.7157 H       1  ZINC000537799672    0.0900
     34 H34        -8.3518    5.3856   58.0133 H       1  ZINC000537799672    0.0400
     35 H35       -11.6348    2.6293   57.9642 H       1  ZINC000537799672    0.1300
     36 H36       -12.2882    0.5789   59.1602 H       1  ZINC000537799672    0.1400
     37 H37        -8.4313   -1.0873   58.4041 H       1  ZINC000537799672    0.1400
     38 H38        -7.7831    0.9626   57.2043 H       1  ZINC000537799672    0.1300
     39 H39       -11.7148    3.3597   55.6934 H       1  ZINC000537799672    0.0700
     40 H40       -11.3682    2.6328   54.1060 H       1  ZINC000537799672    0.0600
     41 H41       -11.2422    1.6472   55.5828 H       1  ZINC000537799672    0.0700
     42 H42        -8.3448    1.3418   55.2525 H       1  ZINC000537799672    0.4000
     43 H43        -5.9770    2.1504   52.7432 H       1  ZINC000537799672    0.1300
     44 H44        -4.5706    0.4083   51.7244 H       1  ZINC000537799672    0.1300
     45 H45        -5.5374   -1.7792   51.1493 H       1  ZINC000537799672    0.1300
     46 H46        -7.9141   -2.2385   51.5889 H       1  ZINC000537799672    0.1400
     47 H47       -10.1070    0.0657   53.4802 H       1  ZINC000537799672    0.0800
     48 H48       -10.3261   -0.4196   51.7818 H       1  ZINC000537799672    0.0800
     49 H49       -11.4350   -1.4820   54.4004 H       1  ZINC000537799672    0.0600
     50 H50       -12.3203   -1.3039   52.1067 H       1  ZINC000537799672    0.0800
     51 H51       -11.9512   -3.0213   51.8125 H       1  ZINC000537799672    0.0800
     52 H52       -13.8892   -1.9282   53.9034 H       1  ZINC000537799672    0.0500
     53 H53       -14.3343   -2.7535   52.3902 H       1  ZINC000537799672    0.1000
     54 H54       -12.8046   -3.2210   55.6515 H       1  ZINC000537799672    0.0500
     55 H55       -12.4924   -4.9490   55.3588 H       1  ZINC000537799672    0.1000
     56 H56       -10.8152   -4.3755   53.6435 H       1  ZINC000537799672    0.0800
     57 H57       -10.4103   -3.5805   55.1851 H       1  ZINC000537799672    0.0800
@<TRIPOS>BOND
     1     1     2    1
     2     1    32    1
     3     1    33    1
     4     1    34    1
     5     2     3    1
     6     3     4    1
     7     3     5    1
     8     3    12    1
     9     5    11   ar
    10     5     6   ar
    11     6     7   ar
    12     6    35    1
    13     7     8   ar
    14     7    36    1
    15     8     9    1
    16     8    10   ar
    17    10    11   ar
    18    10    37    1
    19    11    38    1
    20    12    13    1
    21    12    14    1
    22    12    15    1
    23    14    39    1
    24    14    40    1
    25    14    41    1
    26    15    16   am
    27    15    42    1
    28    16    17    2
    29    16    18    1
    30    18    23   ar
    31    18    19   ar
    32    19    20   ar
    33    19    43    1
    34    20    21   ar
    35    20    44    1
    36    21    22   ar
    37    21    45    1
    38    22    23   ar
    39    22    46    1
    40    23    24    1
    41    24    25    1
    42    24    47    1
    43    24    48    1
    44    25    26    1
    45    26    31    1
    46    26    27    1
    47    26    49    1
    48    27    28    1
    49    27    50    1
    50    27    51    1
    51    28    29    1
    52    28    52    1
    53    28    53    1
    54    29    30    1
    55    30    31    1
    56    30    54    1
    57    30    55    1
    58    31    56    1
    59    31    57    1
@<TRIPOS>SUBSTRUCTURE
     1 ZINC000537799672        1 TEMP              0 ****  ****    0 ROOT


##########                                Name:    ZINC000443394081
##########                DOCK_Rotatable_Bonds:                   8
##########                         Heavy_Atoms:                  27
##########                    Molecular_Weight:             389.878
##########                DOCK_Rotatable_Bonds:                   8
##########                       Formal_Charge:          -0.0300003
##########                     HBond_Acceptors:                   6
##########                        HBond_Donors:                   1
##########                         Heavy_Atoms:                  27
##########                          Grid_Score:          -29.273312
##########                     Grid_vdw_energy:          -30.960505
##########                      Grid_es_energy:            1.687193
##########           Internal_energy_repulsive:           34.844658

@<TRIPOS>MOLECULE
ZINC000443394081
 51 53 1 0 0
SMALL
USER_CHARGES


@<TRIPOS>ATOM
      1 C1         -6.7704   -1.7301   51.3667 C.3     1  ZINC000443394081    0.0200
      2 O2         -6.8387   -0.6371   52.2848 O.3     1  ZINC000443394081   -0.3000
      3 C3         -8.0780   -0.2319   52.6713 C.ar    1  ZINC000443394081    0.1000
      4 C4         -9.1928   -0.9422   52.2713 C.ar    1  ZINC000443394081   -0.1200
      5 C5        -10.4650   -0.5232   52.6708 C.ar    1  ZINC000443394081   -0.1300
      6 C6        -11.6597   -1.2791   52.2465 C.2     1  ZINC000443394081    0.5700
      7 O7        -11.9837   -1.2965   51.0747 O.2     1  ZINC000443394081   -0.4900
      8 N8        -12.3915   -1.9500   53.1579 N.am    1  ZINC000443394081   -0.6100
      9 C9        -13.6022   -2.7417   52.8734 C.3     1  ZINC000443394081    0.0900
     10 C10       -13.6897   -3.7636   54.0345 C.3     1  ZINC000443394081   -0.1300
     11 C11       -13.1958   -2.9139   55.2350 C.3     1  ZINC000443394081   -0.1000
     12 H12       -14.0083   -2.3117   55.6415 H       1  ZINC000443394081    0.0900
     13 C13       -12.5929   -3.8088   56.3197 C.3     1  ZINC000443394081   -0.1500
     14 C14       -12.1111   -2.0190   54.5995 C.3     1  ZINC000443394081    0.1400
     15 H15       -12.1575   -1.0184   55.0293 H       1  ZINC000443394081    0.0800
     16 C16       -10.7278   -2.6259   54.8423 C.3     1  ZINC000443394081    0.0600
     17 O17       -10.5730   -3.7961   54.0369 O.3     1  ZINC000443394081   -0.5400
     18 C18       -10.6033    0.6119   53.4727 C.ar    1  ZINC000443394081   -0.1000
     19 C19        -9.4867    1.3167   53.8680 C.ar    1  ZINC000443394081   -0.1800
     20 C20        -8.2229    0.8976   53.4762 C.ar    1  ZINC000443394081    0.1300
     21 O21        -7.1259    1.5952   53.8683 O.3     1  ZINC000443394081   -0.3000
     22 C22        -6.8682    2.8300   53.1967 C.3     1  ZINC000443394081    0.1000
     23 C23        -5.5851    3.4260   53.7159 C.ar    1  ZINC000443394081   -0.0800
     24 C24        -5.6184    4.3531   54.7402 C.ar    1  ZINC000443394081   -0.0800
     25 C25        -4.4413    4.8999   55.2166 C.ar    1  ZINC000443394081   -0.1100
     26 C26        -3.2306    4.5202   54.6685 C.ar    1  ZINC000443394081   -0.1000
     27 C27        -3.1960    3.5929   53.6438 C.ar    1  ZINC000443394081   -0.1100
     28 C28        -4.3729    3.0408   53.1710 C.ar    1  ZINC000443394081   -0.0300
     29 Cl29       -4.3303    1.8762   51.8843 Cl      1  ZINC000443394081   -0.0700
     30 H30        -5.7270   -1.9511   51.1420 H       1  ZINC000443394081    0.1000
     31 H31        -7.2401   -2.6076   51.8111 H       1  ZINC000443394081    0.0600
     32 H32        -7.2921   -1.4652   50.4470 H       1  ZINC000443394081    0.0600
     33 H33        -9.0818   -1.8193   51.6510 H       1  ZINC000443394081    0.1500
     34 H34       -14.4826   -2.0992   52.8664 H       1  ZINC000443394081    0.0700
     35 H35       -13.5016   -3.2592   51.9194 H       1  ZINC000443394081    0.0800
     36 H36       -14.7169   -4.0949   54.1866 H       1  ZINC000443394081    0.0900
     37 H37       -13.0290   -4.6124   53.8584 H       1  ZINC000443394081    0.0800
     38 H38       -11.7643   -4.3795   55.9008 H       1  ZINC000443394081    0.0600
     39 H39       -12.2297   -3.1902   57.1406 H       1  ZINC000443394081    0.0600
     40 H40       -13.3551   -4.4939   56.6908 H       1  ZINC000443394081    0.0600
     41 H41        -9.9604   -1.8985   54.5777 H       1  ZINC000443394081    0.0600
     42 H42       -10.6279   -2.8930   55.8943 H       1  ZINC000443394081    0.0400
     43 H43       -11.2208   -4.4897   54.2223 H       1  ZINC000443394081    0.3700
     44 H44       -11.5852    0.9377   53.7826 H       1  ZINC000443394081    0.1400
     45 H45        -9.5951    2.1945   54.4877 H       1  ZINC000443394081    0.1400
     46 H46        -6.7774    2.6490   52.1256 H       1  ZINC000443394081    0.0800
     47 H47        -7.6903    3.5218   53.3800 H       1  ZINC000443394081    0.0800
     48 H48        -6.5641    4.6507   55.1684 H       1  ZINC000443394081    0.1400
     49 H49        -4.4678    5.6244   56.0172 H       1  ZINC000443394081    0.1300
     50 H50        -2.3115    4.9482   55.0405 H       1  ZINC000443394081    0.1300
     51 H51        -2.2499    3.2962   53.2156 H       1  ZINC000443394081    0.1400
@<TRIPOS>BOND
     1     1     2    1
     2     1    30    1
     3     1    31    1
     4     1    32    1
     5     2     3    1
     6     3    20   ar
     7     3     4   ar
     8     4     5   ar
     9     4    33    1
    10     5     6    1
    11     5    18   ar
    12     6     7    2
    13     6     8   am
    14     8    14    1
    15     8     9    1
    16     9    10    1
    17     9    34    1
    18     9    35    1
    19    10    11    1
    20    10    36    1
    21    10    37    1
    22    11    12    1
    23    11    13    1
    24    11    14    1
    25    13    38    1
    26    13    39    1
    27    13    40    1
    28    14    15    1
    29    14    16    1
    30    16    17    1
    31    16    41    1
    32    16    42    1
    33    17    43    1
    34    18    19   ar
    35    18    44    1
    36    19    20   ar
    37    19    45    1
    38    20    21    1
    39    21    22    1
    40    22    23    1
    41    22    46    1
    42    22    47    1
    43    23    28   ar
    44    23    24   ar
    45    24    25   ar
    46    24    48    1
    47    25    26   ar
    48    25    49    1
    49    26    27   ar
    50    26    50    1
    51    27    28   ar
    52    27    51    1
    53    28    29    1
@<TRIPOS>SUBSTRUCTURE
     1 ZINC000443394081        1 TEMP              0 ****  ****    0 ROOT


##########                                Name:    ZINC000939075213
##########                DOCK_Rotatable_Bonds:                   7
##########                         Heavy_Atoms:                  24
##########                    Molecular_Weight:             327.426
##########                DOCK_Rotatable_Bonds:                   7
##########                       Formal_Charge:          -0.0200002
##########                     HBond_Acceptors:                   5
##########                        HBond_Donors:                   2
##########                         Heavy_Atoms:                  24
##########                          Grid_Score:          -29.265747
##########                     Grid_vdw_energy:          -29.492382
##########                      Grid_es_energy:            0.226634
##########           Internal_energy_repulsive:            7.946327

@<TRIPOS>MOLECULE
ZINC000939075213
 49 51 1 0 0
SMALL
USER_CHARGES


@<TRIPOS>ATOM
      1 C1         -0.4074    4.7246   51.8529 C.3     1  ZINC000939075213   -0.1400
      2 C2         -1.7873    4.1784   51.4808 C.3     1  ZINC000939075213   -0.1100
      3 H3         -2.1962    4.7087   50.6207 H       1  ZINC000939075213    0.0900
      4 C4         -2.7558    4.2476   52.6877 C.3     1  ZINC000939075213    0.1100
      5 N5         -3.7581    3.1983   52.4279 N.am    1  ZINC000939075213   -0.6200
      6 C6         -5.0122    3.1706   52.9209 C.2     1  ZINC000939075213    0.5600
      7 O7         -5.3997    4.0654   53.6503 O.2     1  ZINC000939075213   -0.5400
      8 C8         -5.8788    2.1014   52.5910 C.2     1  ZINC000939075213   -0.2600
      9 C9         -6.9826    1.8665   53.3431 C.2     1  ZINC000939075213    0.0400
     10 C10        -7.8502    0.7963   53.0130 C.2     1  ZINC000939075213    0.0000
     11 C11        -8.9625    0.3944   53.7295 C.2     1  ZINC000939075213   -0.1500
     12 C12        -9.5195   -0.6916   53.0479 C.2     1  ZINC000939075213   -0.2200
     13 C13        -8.7584   -0.9310   51.9528 C.2     1  ZINC000939075213    0.0200
     14 N14        -7.7435   -0.0301   51.9168 N.pl3   1  ZINC000939075213   -0.5000
     15 C15        -3.1636    2.1875   51.5410 C.3     1  ZINC000939075213    0.0900
     16 C16        -1.7275    2.6509   51.2152 C.3     1  ZINC000939075213    0.1400
     17 H17        -1.0079    2.1724   51.8796 H       1  ZINC000939075213    0.1100
     18 N18        -1.3994    2.3756   49.8142 N.am    1  ZINC000939075213   -0.7200
     19 C19        -0.3559    1.5785   49.5106 C.2     1  ZINC000939075213    0.5300
     20 O20         0.3124    1.0903   50.3972 O.2     1  ZINC000939075213   -0.5300
     21 C21        -0.0195    1.2940   48.0695 C.3     1  ZINC000939075213   -0.0600
     22 C22         0.0472    2.5976   47.2714 C.3     1  ZINC000939075213   -0.1300
     23 C23         1.2903    0.5468   47.9723 C.2     1  ZINC000939075213   -0.1700
     24 C24         1.2036   -0.4458   47.1292 C.2     1  ZINC000939075213   -0.1400
     25 C25        -0.1783   -0.5263   46.5236 C.3     1  ZINC000939075213   -0.1100
     26 C26        -1.0648    0.3368   47.4511 C.3     1  ZINC000939075213   -0.1100
     27 H27         0.2753    4.5897   51.0139 H       1  ZINC000939075213    0.0600
     28 H28        -0.4881    5.7858   52.0886 H       1  ZINC000939075213    0.0700
     29 H29        -0.0261    4.1876   52.7214 H       1  ZINC000939075213    0.0600
     30 H30        -2.2217    4.0408   53.6151 H       1  ZINC000939075213    0.0700
     31 H31        -3.2341    5.2259   52.7346 H       1  ZINC000939075213    0.0800
     32 H32        -5.6611    1.4727   51.7403 H       1  ZINC000939075213    0.1300
     33 H33        -7.2002    2.4954   54.1937 H       1  ZINC000939075213    0.1500
     34 H34        -9.3310    0.8360   54.6437 H       1  ZINC000939075213    0.1400
     35 H35       -10.4006   -1.2423   53.3423 H       1  ZINC000939075213    0.1400
     36 H36        -8.9329   -1.7096   51.2249 H       1  ZINC000939075213    0.1600
     37 H37        -7.0547    0.0195   51.2356 H       1  ZINC000939075213    0.4100
     38 H38        -3.1364    1.2217   52.0456 H       1  ZINC000939075213    0.0800
     39 H39        -3.7454    2.1120   50.6224 H       1  ZINC000939075213    0.0700
     40 H40        -1.9332    2.7670   49.1052 H       1  ZINC000939075213    0.4000
     41 H41         0.8073    3.2491   47.7026 H       1  ZINC000939075213    0.0600
     42 H42         0.3033    2.3767   46.2353 H       1  ZINC000939075213    0.0700
     43 H43        -0.9215    3.0960   47.3079 H       1  ZINC000939075213    0.0600
     44 H44         2.1812    0.8011   48.5272 H       1  ZINC000939075213    0.1300
     45 H45         2.0135   -1.1208   46.8950 H       1  ZINC000939075213    0.1300
     46 H46        -0.1746   -0.1170   45.5133 H       1  ZINC000939075213    0.0800
     47 H47        -0.5296   -1.5581   46.5149 H       1  ZINC000939075213    0.0800
     48 H48        -1.5385   -0.2744   48.2194 H       1  ZINC000939075213    0.0900
     49 H49        -1.8099    0.8885   46.8779 H       1  ZINC000939075213    0.0800
@<TRIPOS>BOND
     1     1     2    1
     2     1    27    1
     3     1    28    1
     4     1    29    1
     5     2     3    1
     6     2    16    1
     7     2     4    1
     8     4     5    1
     9     4    30    1
    10     4    31    1
    11     5     6   am
    12     5    15    1
    13     6     7    2
    14     6     8    1
    15     8     9    2
    16     8    32    1
    17     9    10    1
    18     9    33    1
    19    10    14    1
    20    10    11    2
    21    11    12    1
    22    11    34    1
    23    12    13    2
    24    12    35    1
    25    13    14    1
    26    13    36    1
    27    14    37    1
    28    15    16    1
    29    15    38    1
    30    15    39    1
    31    16    17    1
    32    16    18    1
    33    18    19   am
    34    18    40    1
    35    19    20    2
    36    19    21    1
    37    21    26    1
    38    21    22    1
    39    21    23    1
    40    22    41    1
    41    22    42    1
    42    22    43    1
    43    23    24    2
    44    23    44    1
    45    24    25    1
    46    24    45    1
    47    25    26    1
    48    25    46    1
    49    25    47    1
    50    26    48    1
    51    26    49    1
@<TRIPOS>SUBSTRUCTURE
     1 ZINC000939075213        1 TEMP              0 ****  ****    0 ROOT


##########                                Name:    ZINC000444542200
##########                DOCK_Rotatable_Bonds:                   8
##########                         Heavy_Atoms:                  28
##########                    Molecular_Weight:             404.337
##########                DOCK_Rotatable_Bonds:                   8
##########                       Formal_Charge:           0.0200001
##########                     HBond_Acceptors:                  10
##########                        HBond_Donors:                   1
##########                         Heavy_Atoms:                  28
##########                          Grid_Score:          -29.241285
##########                     Grid_vdw_energy:          -28.499643
##########                      Grid_es_energy:           -0.741641
##########           Internal_energy_repulsive:           19.476311

@<TRIPOS>MOLECULE
ZINC000444542200
 45 46 1 0 0
SMALL
USER_CHARGES


@<TRIPOS>ATOM
      1 C1        -15.2425   -3.1525   59.2724 C.3     1  ZINC000444542200    0.0300
      2 O2        -14.3574   -2.6607   60.2808 O.3     1  ZINC000444542200   -0.3100
      3 C3        -13.0812   -2.3877   59.9017 C.ar    1  ZINC000444542200    0.1800
      4 C4        -12.7025   -2.5466   58.5774 C.ar    1  ZINC000444542200   -0.1700
      5 C5        -11.3991   -2.2673   58.1903 C.ar    1  ZINC000444542200    0.2300
      6 N6        -11.0164   -2.4269   56.8538 N.am    1  ZINC000444542200   -0.5800
      7 C7        -10.5980   -3.7426   56.3637 C.3     1  ZINC000444542200    0.0700
      8 C8        -11.0329   -1.3702   56.0174 C.2     1  ZINC000444542200    0.7100
      9 O9        -11.3803   -0.2783   56.4240 O.2     1  ZINC000444542200   -0.5500
     10 N10       -10.6644   -1.5240   54.7301 N.am    1  ZINC000444542200   -0.7300
     11 C11       -10.6806   -0.3749   53.8213 C.3     1  ZINC000444542200    0.1700
     12 H12       -10.8133    0.5414   54.3965 H       1  ZINC000444542200    0.1500
     13 C13        -9.3765   -0.3113   53.0688 C.ar    1  ZINC000444542200   -0.1300
     14 C14        -8.8700   -1.4475   52.4665 C.ar    1  ZINC000444542200   -0.0800
     15 C15        -7.6737   -1.3908   51.7758 C.ar    1  ZINC000444542200   -0.0900
     16 C16        -6.9817   -0.1977   51.6861 C.ar    1  ZINC000444542200   -0.1100
     17 C17        -7.4862    0.9419   52.2882 C.ar    1  ZINC000444542200    0.0800
     18 F18        -6.8104    2.1084   52.2009 F       1  ZINC000444542200   -0.1200
     19 C19        -8.6888    0.8863   52.9760 C.ar    1  ZINC000444542200    0.1000
     20 F20        -9.1832    1.9974   53.5645 F       1  ZINC000444542200   -0.1100
     21 C21       -11.8353   -0.5259   52.8290 C.3     1  ZINC000444542200    0.4400
     22 F22       -11.9977   -1.8770   52.5045 F       1  ZINC000444542200   -0.1600
     23 F23       -13.0132   -0.0402   53.4068 F       1  ZINC000444542200   -0.1700
     24 F24       -11.5508    0.2015   51.6683 F       1  ZINC000444542200   -0.1800
     25 C25       -10.4756   -1.8292   59.1294 C.ar    1  ZINC000444542200   -0.1900
     26 C26       -10.8556   -1.6709   60.4534 C.ar    1  ZINC000444542200    0.1800
     27 O27        -9.9516   -1.2420   61.3729 O.3     1  ZINC000444542200   -0.3100
     28 C28        -8.6159   -1.0211   60.9156 C.3     1  ZINC000444542200    0.0300
     29 C29       -12.1594   -1.9449   60.8385 C.ar    1  ZINC000444542200   -0.2900
     30 H30       -15.3256   -2.4174   58.4720 H       1  ZINC000444542200    0.0600
     31 H31       -14.8507   -4.0863   58.8690 H       1  ZINC000444542200    0.0600
     32 H32       -16.2263   -3.3291   59.7073 H       1  ZINC000444542200    0.1000
     33 H33       -13.4216   -2.8877   57.8473 H       1  ZINC000444542200    0.1300
     34 H34       -11.4669   -4.2841   55.9895 H       1  ZINC000444542200    0.0700
     35 H35        -9.8738   -3.6170   55.5588 H       1  ZINC000444542200    0.0700
     36 H36       -10.1421   -4.3055   57.1782 H       1  ZINC000444542200    0.0900
     37 H37       -10.3884   -2.3953   54.4053 H       1  ZINC000444542200    0.4100
     38 H38        -9.4091   -2.3807   52.5358 H       1  ZINC000444542200    0.1400
     39 H39        -7.2793   -2.2797   51.3061 H       1  ZINC000444542200    0.1500
     40 H40        -6.0471   -0.1548   51.1466 H       1  ZINC000444542200    0.1500
     41 H41        -9.4612   -1.6122   58.8289 H       1  ZINC000444542200    0.1400
     42 H42        -8.6205   -0.2621   60.1333 H       1  ZINC000444542200    0.0600
     43 H43        -7.9985   -0.6818   61.7474 H       1  ZINC000444542200    0.1000
     44 H44        -8.2098   -1.9510   60.5173 H       1  ZINC000444542200    0.0600
     45 H45       -12.4549   -1.8215   61.8699 H       1  ZINC000444542200    0.1400
@<TRIPOS>BOND
     1     1     2    1
     2     1    30    1
     3     1    31    1
     4     1    32    1
     5     2     3    1
     6     3    29   ar
     7     3     4   ar
     8     4     5   ar
     9     4    33    1
    10     5     6    1
    11     5    25   ar
    12     6     7    1
    13     6     8   am
    14     7    34    1
    15     7    35    1
    16     7    36    1
    17     8     9    2
    18     8    10   am
    19    10    11    1
    20    10    37    1
    21    11    12    1
    22    11    13    1
    23    11    21    1
    24    13    19   ar
    25    13    14   ar
    26    14    15   ar
    27    14    38    1
    28    15    16   ar
    29    15    39    1
    30    16    17   ar
    31    16    40    1
    32    17    18    1
    33    17    19   ar
    34    19    20    1
    35    21    22    1
    36    21    23    1
    37    21    24    1
    38    25    26   ar
    39    25    41    1
    40    26    27    1
    41    26    29   ar
    42    27    28    1
    43    28    42    1
    44    28    43    1
    45    28    44    1
    46    29    45    1
@<TRIPOS>SUBSTRUCTURE
     1 ZINC000444542200        1 TEMP              0 ****  ****    0 ROOT


##########                                Name:    ZINC000851838607
##########                DOCK_Rotatable_Bonds:                  12
##########                         Heavy_Atoms:                  23
##########                    Molecular_Weight:             352.495
##########                DOCK_Rotatable_Bonds:                  12
##########                       Formal_Charge:          0.00999896
##########                     HBond_Acceptors:                   8
##########                        HBond_Donors:                   2
##########                         Heavy_Atoms:                  23
##########                          Grid_Score:          -29.162548
##########                     Grid_vdw_energy:          -28.752205
##########                      Grid_es_energy:           -0.410344
##########           Internal_energy_repulsive:           22.142370

@<TRIPOS>MOLECULE
ZINC000851838607
 55 54 1 0 0
SMALL
USER_CHARGES


@<TRIPOS>ATOM
      1 C1        -11.4511   -1.9480   52.5985 C.3     1  ZINC000851838607    0.0300
      2 O2        -10.6953   -0.7395   52.7002 O.3     1  ZINC000851838607   -0.3800
      3 C3         -9.3331   -0.8695   52.2886 C.3     1  ZINC000851838607    0.0800
      4 C4         -8.6349    0.4874   52.4000 C.3     1  ZINC000851838607   -0.6000
      5 H5         -9.1381    1.2088   51.7562 H       1  ZINC000851838607    0.1400
      6 C6         -8.6909    0.9722   53.8502 C.3     1  ZINC000851838607   -0.1400
      7 S7         -6.9037    0.3209   51.8845 S.o2    1  ZINC000851838607    2.6200
      8 O8         -6.2414   -0.6597   52.6711 O.2     1  ZINC000851838607   -0.9400
      9 O9         -6.8043    0.3126   50.4670 O.2     1  ZINC000851838607   -0.9500
     10 N10        -6.1992    1.7503   52.3350 N.am    1  ZINC000851838607   -1.1200
     11 C11        -4.7763    1.9801   52.0730 C.3     1  ZINC000851838607    0.1100
     12 C12        -4.2790    3.1394   52.9388 C.3     1  ZINC000851838607   -0.1400
     13 C13        -2.7882    3.3661   52.6804 C.3     1  ZINC000851838607    0.1700
     14 H14        -2.2169    2.5372   53.0983 H       1  ZINC000851838607    0.1000
     15 N15        -2.5492    3.4454   51.2372 N.am    1  ZINC000851838607   -0.7100
     16 C16        -2.0185    2.3932   50.5832 C.2     1  ZINC000851838607    0.6500
     17 O17        -1.7367    1.3793   51.1910 O.2     1  ZINC000851838607   -0.5600
     18 O18        -1.8004    2.4655   49.2566 O.3     1  ZINC000851838607   -0.3700
     19 C19        -0.4170    2.4897   48.8164 C.3     1  ZINC000851838607    0.1400
     20 C20         0.4130    3.3303   49.7887 C.3     1  ZINC000851838607   -0.1800
     21 C21         0.1317    1.0620   48.7797 C.3     1  ZINC000851838607   -0.1400
     22 C22        -0.3379    3.1025   47.4167 C.3     1  ZINC000851838607   -0.1800
     23 C23        -2.3488    4.6734   53.3427 C.3     1  ZINC000851838607   -0.1100
     24 C24        -2.5001    4.5523   54.8603 C.3     1  ZINC000851838607   -0.1500
     25 C25        -0.8849    4.9535   52.9968 C.3     1  ZINC000851838607   -0.1400
     26 H26       -11.4590   -2.2856   51.5621 H       1  ZINC000851838607    0.0400
     27 H27       -10.9970   -2.7145   53.2267 H       1  ZINC000851838607    0.0500
     28 H28       -12.4737   -1.7660   52.9292 H       1  ZINC000851838607    0.0900
     29 H29        -8.8274   -1.5919   52.9292 H       1  ZINC000851838607    0.0700
     30 H30        -9.2971   -1.2128   51.2547 H       1  ZINC000851838607    0.0600
     31 H31        -8.1161    1.8931   53.9478 H       1  ZINC000851838607    0.0700
     32 H32        -9.7273    1.1592   54.1309 H       1  ZINC000851838607    0.0900
     33 H33        -8.2691    0.2094   54.5047 H       1  ZINC000851838607    0.0700
     34 H34        -6.7287    2.4353   52.7723 H       1  ZINC000851838607    0.4200
     35 H35        -4.2123    1.0789   52.3137 H       1  ZINC000851838607    0.0700
     36 H36        -4.6358    2.2263   51.0205 H       1  ZINC000851838607    0.0800
     37 H37        -4.8330    4.0439   52.6877 H       1  ZINC000851838607    0.0800
     38 H38        -4.4331    2.8994   53.9908 H       1  ZINC000851838607    0.1000
     39 H39        -2.7731    4.2550   50.7523 H       1  ZINC000851838607    0.4100
     40 H40         0.3567    2.8938   50.7859 H       1  ZINC000851838607    0.0600
     41 H41         1.4515    3.3485   49.4581 H       1  ZINC000851838607    0.0700
     42 H42         0.0221    4.3475   49.8148 H       1  ZINC000851838607    0.0900
     43 H43        -0.4596    0.4631   48.0870 H       1  ZINC000851838607    0.0700
     44 H44         1.1703    1.0802   48.4493 H       1  ZINC000851838607    0.0800
     45 H45         0.0755    0.6255   49.7769 H       1  ZINC000851838607    0.0700
     46 H46        -0.7288    4.1197   47.4427 H       1  ZINC000851838607    0.0900
     47 H47         0.7006    3.1207   47.0861 H       1  ZINC000851838607    0.0700
     48 H48        -0.9292    2.5036   46.7239 H       1  ZINC000851838607    0.0600
     49 H49        -2.9708    5.4916   52.9797 H       1  ZINC000851838607    0.0700
     50 H50        -1.8781    3.7342   55.2234 H       1  ZINC000851838607    0.0600
     51 H51        -2.1870    5.4837   55.3321 H       1  ZINC000851838607    0.0600
     52 H52        -3.5430    4.3529   55.1067 H       1  ZINC000851838607    0.0600
     53 H53        -0.7771    5.0397   51.9156 H       1  ZINC000851838607    0.0500
     54 H54        -0.5719    5.8848   53.4687 H       1  ZINC000851838607    0.0500
     55 H55        -0.2629    4.1353   53.3599 H       1  ZINC000851838607    0.0700
@<TRIPOS>BOND
     1     1     2    1
     2     1    26    1
     3     1    27    1
     4     1    28    1
     5     2     3    1
     6     3     4    1
     7     3    29    1
     8     3    30    1
     9     4     5    1
    10     4     6    1
    11     4     7    1
    12     6    31    1
    13     6    32    1
    14     6    33    1
    15     7     8    2
    16     7     9    2
    17     7    10   am
    18    10    11    1
    19    10    34    1
    20    11    12    1
    21    11    35    1
    22    11    36    1
    23    12    13    1
    24    12    37    1
    25    12    38    1
    26    13    14    1
    27    13    15    1
    28    13    23    1
    29    15    16   am
    30    15    39    1
    31    16    17    2
    32    16    18    1
    33    18    19    1
    34    19    20    1
    35    19    21    1
    36    19    22    1
    37    20    40    1
    38    20    41    1
    39    20    42    1
    40    21    43    1
    41    21    44    1
    42    21    45    1
    43    22    46    1
    44    22    47    1
    45    22    48    1
    46    23    24    1
    47    23    25    1
    48    23    49    1
    49    24    50    1
    50    24    51    1
    51    24    52    1
    52    25    53    1
    53    25    54    1
    54    25    55    1
@<TRIPOS>SUBSTRUCTURE
     1 ZINC000851838607        1 TEMP              0 ****  ****    0 ROOT


##########                                Name:    ZINC001110536231
##########                DOCK_Rotatable_Bonds:                   8
##########                         Heavy_Atoms:                  24
##########                    Molecular_Weight:             329.442
##########                DOCK_Rotatable_Bonds:                   8
##########                       Formal_Charge:          -0.0400001
##########                     HBond_Acceptors:                   5
##########                        HBond_Donors:                   1
##########                         Heavy_Atoms:                  24
##########                          Grid_Score:          -29.147045
##########                     Grid_vdw_energy:          -29.141348
##########                      Grid_es_energy:           -0.005696
##########           Internal_energy_repulsive:           22.923351

@<TRIPOS>MOLECULE
ZINC001110536231
 51 53 1 0 0
SMALL
USER_CHARGES


@<TRIPOS>ATOM
      1 C1        -12.7281    2.1677   47.6791 C.3     1  ZINC001110536231   -0.1300
      2 C2        -14.1142    1.6808   48.1063 C.3     1  ZINC001110536231   -0.1000
      3 C3        -14.0010    0.9142   49.3988 C.2     1  ZINC001110536231   -0.0200
      4 C4        -14.1044    1.6389   50.7161 C.3     1  ZINC001110536231   -0.1300
      5 C5        -13.8098   -0.4018   49.3771 C.2     1  ZINC001110536231   -0.2400
      6 C6        -13.6994   -1.1498   50.6389 C.2     1  ZINC001110536231    0.5400
      7 O7        -14.7034   -1.5273   51.2119 O.2     1  ZINC001110536231   -0.5300
      8 N8        -12.4854   -1.4168   51.1599 N.am    1  ZINC001110536231   -0.7300
      9 C9        -12.3753   -2.1633   52.4156 C.3     1  ZINC001110536231    0.1100
     10 H10       -13.2104   -2.8554   52.5237 H       1  ZINC001110536231    0.1000
     11 C11       -12.3106   -1.1946   53.6218 C.3     1  ZINC001110536231   -0.1600
     12 C12       -10.9211   -1.4983   54.2588 C.3     1  ZINC001110536231    0.0500
     13 H13       -10.5102   -0.7101   54.8898 H       1  ZINC001110536231    0.1200
     14 C14       -11.0846   -2.8900   54.9411 C.3     1  ZINC001110536231   -0.1200
     15 C15       -11.1576   -3.8723   53.7465 C.3     1  ZINC001110536231   -0.1100
     16 C16       -11.0180   -2.9262   52.4831 C.3     1  ZINC001110536231    0.0400
     17 H17       -10.6884   -3.4126   51.5650 H       1  ZINC001110536231    0.1200
     18 N18       -10.1140   -1.8495   53.0361 N.3     1  ZINC001110536231   -0.4900
     19 C19       -10.0175   -0.7151   52.1076 C.3     1  ZINC001110536231    0.0600
     20 C20        -8.6241   -0.1432   52.1567 C.ar    1  ZINC001110536231    0.0100
     21 C21        -7.5272   -0.9145   51.7990 C.ar    1  ZINC001110536231   -0.2100
     22 C22        -6.2640   -0.3595   51.8549 C.ar    1  ZINC001110536231    0.1400
     23 N23        -6.0907    0.8896   52.2427 N.ar    1  ZINC001110536231   -0.5400
     24 C24        -7.1110    1.6560   52.5912 C.ar    1  ZINC001110536231    0.3200
     25 O25        -6.8870    2.9354   52.9834 O.3     1  ZINC001110536231   -0.3100
     26 C26        -6.6739    3.1584   54.3787 C.3     1  ZINC001110536231    0.0400
     27 C27        -8.4097    1.1654   52.5542 C.ar    1  ZINC001110536231   -0.1700
     28 H28       -12.8100    2.7222   46.7442 H       1  ZINC001110536231    0.0500
     29 H29       -12.3169    2.8171   48.4519 H       1  ZINC001110536231    0.0700
     30 H30       -12.0698    1.3107   47.5367 H       1  ZINC001110536231    0.0400
     31 H31       -14.7724    2.5379   48.2487 H       1  ZINC001110536231    0.0900
     32 H32       -14.5252    1.0313   47.3335 H       1  ZINC001110536231    0.0600
     33 H33       -15.1464    1.6659   51.0352 H       1  ZINC001110536231    0.0800
     34 H34       -13.5084    1.1178   51.4654 H       1  ZINC001110536231    0.0700
     35 H35       -13.7333    2.6573   50.6007 H       1  ZINC001110536231    0.0700
     36 H36       -13.7357   -0.9211   48.4330 H       1  ZINC001110536231    0.1200
     37 H37       -11.6846   -1.1146   50.7035 H       1  ZINC001110536231    0.4000
     38 H38       -12.3605   -0.1590   53.2854 H       1  ZINC001110536231    0.0700
     39 H39       -13.1120   -1.4084   54.3291 H       1  ZINC001110536231    0.0800
     40 H40       -10.2222   -3.1130   55.5692 H       1  ZINC001110536231    0.0700
     41 H41       -12.0048   -2.9257   55.5241 H       1  ZINC001110536231    0.0700
     42 H42       -10.3314   -4.5824   53.7826 H       1  ZINC001110536231    0.0800
     43 H43       -12.1140   -4.3950   53.7375 H       1  ZINC001110536231    0.0700
     44 H44       -10.2355   -1.0547   51.0951 H       1  ZINC001110536231    0.0900
     45 H45       -10.7356    0.0525   52.3960 H       1  ZINC001110536231    0.0700
     46 H46        -7.6601   -1.9380   51.4808 H       1  ZINC001110536231    0.1300
     47 H47        -5.4071   -0.9555   51.5779 H       1  ZINC001110536231    0.1600
     48 H48        -6.5074    4.2210   54.5556 H       1  ZINC001110536231    0.1000
     49 H49        -7.5505    2.8300   54.9372 H       1  ZINC001110536231    0.0600
     50 H50        -5.8012    2.5942   54.7077 H       1  ZINC001110536231    0.0600
     51 H51        -9.2404    1.7939   52.8390 H       1  ZINC001110536231    0.1400
@<TRIPOS>BOND
     1     1     2    1
     2     1    28    1
     3     1    29    1
     4     1    30    1
     5     2     3    1
     6     2    31    1
     7     2    32    1
     8     3     4    1
     9     3     5    2
    10     4    33    1
    11     4    34    1
    12     4    35    1
    13     5     6    1
    14     5    36    1
    15     6     7    2
    16     6     8   am
    17     8     9    1
    18     8    37    1
    19     9    10    1
    20     9    16    1
    21     9    11    1
    22    11    12    1
    23    11    38    1
    24    11    39    1
    25    12    13    1
    26    12    18    1
    27    12    14    1
    28    14    15    1
    29    14    40    1
    30    14    41    1
    31    15    16    1
    32    15    42    1
    33    15    43    1
    34    16    17    1
    35    16    18    1
    36    18    19    1
    37    19    20    1
    38    19    44    1
    39    19    45    1
    40    20    27   ar
    41    20    21   ar
    42    21    22   ar
    43    21    46    1
    44    22    23   ar
    45    22    47    1
    46    23    24   ar
    47    24    25    1
    48    24    27   ar
    49    25    26    1
    50    26    48    1
    51    26    49    1
    52    26    50    1
    53    27    51    1
@<TRIPOS>SUBSTRUCTURE
     1 ZINC001110536231        1 TEMP              0 ****  ****    0 ROOT


##########                                Name:    ZINC001625935330
##########                DOCK_Rotatable_Bonds:                   5
##########                         Heavy_Atoms:                  25
##########                    Molecular_Weight:             327.385
##########                DOCK_Rotatable_Bonds:                   5
##########                       Formal_Charge:           0.0199995
##########                     HBond_Acceptors:                   4
##########                        HBond_Donors:                   1
##########                         Heavy_Atoms:                  25
##########                          Grid_Score:          -29.143269
##########                     Grid_vdw_energy:          -28.901833
##########                      Grid_es_energy:           -0.241436
##########           Internal_energy_repulsive:           15.207185

@<TRIPOS>MOLECULE
ZINC001625935330
 42 44 1 0 0
SMALL
USER_CHARGES


@<TRIPOS>ATOM
      1 C1        -13.0062    0.1049   54.5058 C.3     1  ZINC001625935330   -0.1600
      2 C2        -12.2668   -1.0392   53.8091 C.3     1  ZINC001625935330    0.1800
      3 H3        -12.7371   -1.2432   52.8472 H       1  ZINC001625935330    0.1000
      4 N4        -10.8677   -0.6595   53.5979 N.am    1  ZINC001625935330   -0.7100
      5 C5        -10.1271   -1.3026   52.6735 C.2     1  ZINC001625935330    0.5800
      6 O6        -10.6193   -2.1983   52.0163 O.2     1  ZINC001625935330   -0.5300
      7 C7         -8.7125   -0.9174   52.4586 C.ar    1  ZINC001625935330    0.0800
      8 C8         -8.2865    0.3599   52.8061 C.ar    1  ZINC001625935330   -0.1000
      9 C9         -6.9487    0.7064   52.5971 C.ar    1  ZINC001625935330    0.0000
     10 C10        -6.4476    2.0570   52.9524 C.ar    1  ZINC001625935330   -0.0600
     11 C11        -7.2962    2.9803   53.5601 C.ar    1  ZINC001625935330   -0.1000
     12 C12        -6.8247    4.2350   53.8889 C.ar    1  ZINC001625935330   -0.1200
     13 C13        -5.5123    4.5768   53.6163 C.ar    1  ZINC001625935330   -0.1100
     14 C14        -4.6655    3.6642   53.0132 C.ar    1  ZINC001625935330   -0.1200
     15 C15        -5.1250    2.4049   52.6850 C.ar    1  ZINC001625935330   -0.1000
     16 C16        -6.0957   -0.2523   52.0453 C.ar    1  ZINC001625935330   -0.1400
     17 C17        -6.5993   -1.5012   51.7272 C.ar    1  ZINC001625935330    0.1100
     18 N18        -7.8630   -1.7973   51.9412 N.ar    1  ZINC001625935330   -0.4600
     19 C19       -12.3275   -2.2745   54.6701 C.ar    1  ZINC001625935330   -0.0900
     20 C20       -13.1358   -3.3346   54.3002 C.ar    1  ZINC001625935330   -0.0800
     21 C21       -13.1974   -4.4726   55.0850 C.ar    1  ZINC001625935330   -0.1100
     22 C22       -12.4519   -4.5574   56.2423 C.ar    1  ZINC001625935330   -0.0700
     23 C23       -11.6335   -3.4913   56.6214 C.ar    1  ZINC001625935330   -0.0200
     24 C24       -10.8565   -3.5723   57.8216 C.1     1  ZINC001625935330    0.2500
     25 N25       -10.2402   -3.6367   58.7738 N.1     1  ZINC001625935330   -0.4100
     26 C26       -11.5723   -2.3480   55.8224 C.ar    1  ZINC001625935330   -0.0600
     27 H27       -14.0471   -0.1776   54.6629 H       1  ZINC001625935330    0.0700
     28 H28       -12.5359    0.3089   55.4676 H       1  ZINC001625935330    0.0600
     29 H29       -12.9622    0.9984   53.8830 H       1  ZINC001625935330    0.0700
     30 H30       -10.4744    0.0547   54.1232 H       1  ZINC001625935330    0.4100
     31 H31        -8.9782    1.0727   53.2302 H       1  ZINC001625935330    0.1500
     32 H32        -8.3212    2.7146   53.7730 H       1  ZINC001625935330    0.1300
     33 H33        -7.4816    4.9514   54.3595 H       1  ZINC001625935330    0.1300
     34 H34        -5.1475    5.5599   53.8749 H       1  ZINC001625935330    0.1300
     35 H35        -3.6419    3.9364   52.8024 H       1  ZINC001625935330    0.1300
     36 H36        -4.4629    1.6931   52.2144 H       1  ZINC001625935330    0.1300
     37 H37        -5.0556   -0.0214   51.8688 H       1  ZINC001625935330    0.1400
     38 H38        -5.9437   -2.2457   51.3001 H       1  ZINC001625935330    0.1700
     39 H39       -13.7217   -3.2734   53.3950 H       1  ZINC001625935330    0.1300
     40 H40       -13.8311   -5.2962   54.7909 H       1  ZINC001625935330    0.1400
     41 H41       -12.5013   -5.4460   56.8541 H       1  ZINC001625935330    0.1400
     42 H42       -10.9414   -1.5199   56.1098 H       1  ZINC001625935330    0.1400
@<TRIPOS>BOND
     1     1     2    1
     2     1    27    1
     3     1    28    1
     4     1    29    1
     5     2     3    1
     6     2     4    1
     7     2    19    1
     8     4     5   am
     9     4    30    1
    10     5     6    2
    11     5     7    1
    12     7    18   ar
    13     7     8   ar
    14     8     9   ar
    15     8    31    1
    16     9    10    1
    17     9    16   ar
    18    10    15   ar
    19    10    11   ar
    20    11    12   ar
    21    11    32    1
    22    12    13   ar
    23    12    33    1
    24    13    14   ar
    25    13    34    1
    26    14    15   ar
    27    14    35    1
    28    15    36    1
    29    16    17   ar
    30    16    37    1
    31    17    18   ar
    32    17    38    1
    33    19    26   ar
    34    19    20   ar
    35    20    21   ar
    36    20    39    1
    37    21    22   ar
    38    21    40    1
    39    22    23   ar
    40    22    41    1
    41    23    24    1
    42    23    26   ar
    43    24    25    3
    44    26    42    1
@<TRIPOS>SUBSTRUCTURE
     1 ZINC001625935330        1 TEMP              0 ****  ****    0 ROOT


##########                                Name:    ZINC000053543817
##########                DOCK_Rotatable_Bonds:                   7
##########                         Heavy_Atoms:                  25
##########                    Molecular_Weight:             350.458
##########                DOCK_Rotatable_Bonds:                   7
##########                       Formal_Charge:           0.0199998
##########                     HBond_Acceptors:                   6
##########                        HBond_Donors:                   2
##########                         Heavy_Atoms:                  25
##########                          Grid_Score:          -29.139191
##########                     Grid_vdw_energy:          -27.201870
##########                      Grid_es_energy:           -1.937322
##########           Internal_energy_repulsive:           12.514431

@<TRIPOS>MOLECULE
ZINC000053543817
 55 56 1 0 0
SMALL
USER_CHARGES


@<TRIPOS>ATOM
      1 C1         -6.3173   -0.1633   51.6455 C.3     1  ZINC000053543817   -0.0700
      2 C2         -7.6495   -0.6004   52.1982 C.2     1  ZINC000053543817   -0.0200
      3 C3         -8.4199    0.1071   53.0480 C.2     1  ZINC000053543817   -0.1800
      4 C4         -9.5634   -0.6724   53.2989 C.2     1  ZINC000053543817   -0.1900
      5 C5         -9.4317   -1.8121   52.5896 C.2     1  ZINC000053543817    0.0000
      6 C6        -10.4539   -2.9225   52.5832 C.3     1  ZINC000053543817   -0.0300
      7 C7        -11.7733   -2.3700   53.1354 C.3     1  ZINC000053543817   -0.0500
      8 C8        -12.3776   -1.3907   52.1271 C.3     1  ZINC000053543817   -0.1500
      9 C9        -12.7494   -3.5241   53.3730 C.3     1  ZINC000053543817   -0.1400
     10 C10       -11.5111   -1.6437   54.4577 C.3     1  ZINC000053543817   -0.1200
     11 C11       -10.7392   -0.3468   54.1825 C.3     1  ZINC000053543817    0.2200
     12 H12       -11.3902    0.3681   53.6794 H       1  ZINC000053543817    0.1000
     13 N13       -10.2646    0.2225   55.4462 N.am    1  ZINC000053543817   -0.7100
     14 C14       -10.9217    1.2562   56.0085 C.2     1  ZINC000053543817    0.5100
     15 O15       -11.9050    1.7161   55.4676 O.2     1  ZINC000053543817   -0.5300
     16 C16       -10.4345    1.8407   57.3093 C.3     1  ZINC000053543817    0.1400
     17 H17       -11.1496    2.5824   57.6649 H       1  ZINC000053543817    0.1200
     18 C18        -9.0746    2.5068   57.0915 C.3     1  ZINC000053543817   -0.1600
     19 N19       -10.3019    0.7738   58.3046 N.am    1  ZINC000053543817   -0.7000
     20 C20       -11.2457    0.6167   59.2539 C.2     1  ZINC000053543817    0.6600
     21 O21       -12.2057    1.3610   59.2852 O.2     1  ZINC000053543817   -0.5700
     22 O22       -11.1246   -0.3646   60.1675 O.3     1  ZINC000053543817   -0.3600
     23 C23       -10.0927   -0.2028   61.1761 C.3     1  ZINC000053543817    0.1400
     24 C24       -10.4591   -1.0202   62.4164 C.3     1  ZINC000053543817   -0.1800
     25 C25        -8.7543   -0.6925   60.6196 C.3     1  ZINC000053543817   -0.1400
     26 C26        -9.9773    1.2751   61.5551 C.3     1  ZINC000053543817   -0.1800
     27 O27        -8.2729   -1.7599   51.9220 O.3     1  ZINC000053543817   -0.1700
     28 H28        -5.9287   -0.9352   50.9811 H       1  ZINC000053543817    0.0800
     29 H29        -6.4418    0.7657   51.0892 H       1  ZINC000053543817    0.0800
     30 H30        -5.6178   -0.0045   52.4662 H       1  ZINC000053543817    0.0800
     31 H31        -8.2014    1.0824   53.4571 H       1  ZINC000053543817    0.1400
     32 H32       -10.6033   -3.2771   51.5634 H       1  ZINC000053543817    0.0900
     33 H33       -10.1080   -3.7425   53.2126 H       1  ZINC000053543817    0.0900
     34 H34       -12.5655   -1.9078   51.1862 H       1  ZINC000053543817    0.0600
     35 H35       -13.3155   -0.9978   52.5195 H       1  ZINC000053543817    0.0600
     36 H36       -11.6821   -0.5688   51.9573 H       1  ZINC000053543817    0.0600
     37 H37       -12.3189   -4.2221   54.0909 H       1  ZINC000053543817    0.0600
     38 H38       -13.6875   -3.1315   53.7656 H       1  ZINC000053543817    0.0600
     39 H39       -12.9373   -4.0406   52.4317 H       1  ZINC000053543817    0.0600
     40 H40       -12.4609   -1.4067   54.9368 H       1  ZINC000053543817    0.0800
     41 H41       -10.9227   -2.2849   55.1140 H       1  ZINC000053543817    0.0700
     42 H42        -9.4775   -0.1445   55.8782 H       1  ZINC000053543817    0.4000
     43 H43        -9.1731    3.3005   56.3510 H       1  ZINC000053543817    0.0800
     44 H44        -8.7221    2.9295   58.0324 H       1  ZINC000053543817    0.0800
     45 H45        -8.3594    1.7650   56.7360 H       1  ZINC000053543817    0.0700
     46 H46        -9.5350    0.1805   58.2804 H       1  ZINC000053543817    0.4200
     47 H47       -10.5412   -2.0730   62.1465 H       1  ZINC000053543817    0.0600
     48 H48        -9.6844   -0.8986   63.1737 H       1  ZINC000053543817    0.0700
     49 H49       -11.4126   -0.6712   62.8129 H       1  ZINC000053543817    0.0900
     50 H50        -8.4932   -0.1101   59.7360 H       1  ZINC000053543817    0.0700
     51 H51        -7.9797   -0.5709   61.3768 H       1  ZINC000053543817    0.0800
     52 H52        -8.8365   -1.7453   60.3497 H       1  ZINC000053543817    0.0700
     53 H53       -10.9309    1.6240   61.9515 H       1  ZINC000053543817    0.0900
     54 H54        -9.2027    1.3967   62.3122 H       1  ZINC000053543817    0.0700
     55 H55        -9.7164    1.8574   60.6715 H       1  ZINC000053543817    0.0600
@<TRIPOS>BOND
     1     1     2    1
     2     1    28    1
     3     1    29    1
     4     1    30    1
     5     2    27    1
     6     2     3    2
     7     3     4    1
     8     3    31    1
     9     4    11    1
    10     4     5    2
    11     5     6    1
    12     5    27    1
    13     6     7    1
    14     6    32    1
    15     6    33    1
    16     7     8    1
    17     7     9    1
    18     7    10    1
    19     8    34    1
    20     8    35    1
    21     8    36    1
    22     9    37    1
    23     9    38    1
    24     9    39    1
    25    10    11    1
    26    10    40    1
    27    10    41    1
    28    11    12    1
    29    11    13    1
    30    13    14   am
    31    13    42    1
    32    14    15    2
    33    14    16    1
    34    16    17    1
    35    16    18    1
    36    16    19    1
    37    18    43    1
    38    18    44    1
    39    18    45    1
    40    19    20   am
    41    19    46    1
    42    20    21    2
    43    20    22    1
    44    22    23    1
    45    23    24    1
    46    23    25    1
    47    23    26    1
    48    24    47    1
    49    24    48    1
    50    24    49    1
    51    25    50    1
    52    25    51    1
    53    25    52    1
    54    26    53    1
    55    26    54    1
    56    26    55    1
@<TRIPOS>SUBSTRUCTURE
     1 ZINC000053543817        1 TEMP              0 ****  ****    0 ROOT


##########                                Name:    ZINC000534890536
##########                DOCK_Rotatable_Bonds:                   6
##########                         Heavy_Atoms:                  30
##########                    Molecular_Weight:             411.476
##########                DOCK_Rotatable_Bonds:                   6
##########                       Formal_Charge:          0.00999957
##########                     HBond_Acceptors:                   7
##########                        HBond_Donors:                   1
##########                         Heavy_Atoms:                  30
##########                          Grid_Score:          -29.133539
##########                     Grid_vdw_energy:          -28.480644
##########                      Grid_es_energy:           -0.652894
##########           Internal_energy_repulsive:           15.147532

@<TRIPOS>MOLECULE
ZINC000534890536
 56 59 1 0 0
SMALL
USER_CHARGES


@<TRIPOS>ATOM
      1 C1        -11.3838   -1.8721   51.8452 C.3     1  ZINC000534890536    0.0300
      2 O2         -9.9882   -1.9902   51.5615 O.3     1  ZINC000534890536   -0.3200
      3 C3         -9.1772   -1.0076   52.0343 C.ar    1  ZINC000534890536    0.1300
      4 C4         -7.8189   -1.0321   51.7527 C.ar    1  ZINC000534890536   -0.2100
      5 C5         -6.9967   -0.0318   52.2341 C.ar    1  ZINC000534890536   -0.0700
      6 C6         -7.5263    0.9930   52.9963 C.ar    1  ZINC000534890536   -0.1100
      7 C7         -6.6270    2.0826   53.5207 C.3     1  ZINC000534890536   -0.0600
      8 H8         -6.2768    1.8475   54.5257 H       1  ZINC000534890536    0.0900
      9 C9         -7.3435    3.4585   53.4890 C.3     1  ZINC000534890536   -0.1200
     10 C10        -6.1714    4.4560   53.3757 C.3     1  ZINC000534890536    0.1000
     11 N11        -5.0254    3.7216   52.8200 N.am    1  ZINC000534890536   -0.6400
     12 C12        -3.8014    4.2356   52.5871 C.2     1  ZINC000534890536    0.7300
     13 O13        -3.5732    5.4022   52.8423 O.2     1  ZINC000534890536   -0.5700
     14 N14        -2.8302    3.4562   52.0714 N.am    1  ZINC000534890536   -0.7300
     15 C15        -1.5003    4.0153   51.8167 C.3     1  ZINC000534890536    0.1600
     16 H16        -1.4799    5.0588   52.1309 H       1  ZINC000534890536    0.1200
     17 C17        -0.4562    3.2251   52.6094 C.3     1  ZINC000534890536   -0.1300
     18 C18         0.9376    3.6395   52.1226 C.3     1  ZINC000534890536   -0.1300
     19 C19         1.1185    3.1532   50.6842 C.3     1  ZINC000534890536    0.1100
     20 N20        -0.0118    3.5640   49.8609 N.am    1  ZINC000534890536   -0.5600
     21 C21         0.1575    3.5722   48.4706 C.ar    1  ZINC000534890536    0.1000
     22 C22         0.6400    4.7077   47.8354 C.ar    1  ZINC000534890536   -0.0800
     23 C23         0.8065    4.7127   46.4637 C.ar    1  ZINC000534890536   -0.1200
     24 C24         0.4927    3.5887   45.7228 C.ar    1  ZINC000534890536   -0.0800
     25 C25         0.0113    2.4544   46.3512 C.ar    1  ZINC000534890536   -0.1500
     26 C26        -0.1523    2.4403   47.7240 C.ar    1  ZINC000534890536    0.1100
     27 F27        -0.6221    1.3324   48.3381 F       1  ZINC000534890536   -0.1300
     28 C28        -1.1963    3.9304   50.3485 C.2     1  ZINC000534890536    0.5000
     29 O29        -2.0774    4.2132   49.5643 O.2     1  ZINC000534890536   -0.5100
     30 C30        -5.4359    2.3291   52.5613 C.3     1  ZINC000534890536    0.1300
     31 C31        -8.8798    1.0200   53.2781 C.ar    1  ZINC000534890536   -0.0700
     32 C32        -9.7071    0.0249   52.7946 C.ar    1  ZINC000534890536   -0.1500
     33 H33       -11.5355   -1.8611   52.9245 H       1  ZINC000534890536    0.0600
     34 H34       -11.7648   -0.9457   51.4154 H       1  ZINC000534890536    0.0600
     35 H35       -11.9156   -2.7193   51.4121 H       1  ZINC000534890536    0.1000
     36 H36        -7.4047   -1.8327   51.1579 H       1  ZINC000534890536    0.1300
     37 H37        -5.9393   -0.0504   52.0151 H       1  ZINC000534890536    0.1300
     38 H38        -7.9982    3.5324   52.6207 H       1  ZINC000534890536    0.0800
     39 H39        -7.9025    3.6234   54.4101 H       1  ZINC000534890536    0.0900
     40 H40        -6.4448    5.2750   52.7104 H       1  ZINC000534890536    0.0700
     41 H41        -5.9193    4.8454   54.3621 H       1  ZINC000534890536    0.0700
     42 H42        -3.0118    2.5251   51.8690 H       1  ZINC000534890536    0.4000
     43 H43        -0.5554    3.4486   53.6716 H       1  ZINC000534890536    0.0900
     44 H44        -0.6003    2.1574   52.4437 H       1  ZINC000534890536    0.0800
     45 H45         1.0287    4.7252   52.1559 H       1  ZINC000534890536    0.0800
     46 H46         1.6972    3.1868   52.7600 H       1  ZINC000534890536    0.1000
     47 H47         2.0357    3.5757   50.2737 H       1  ZINC000534890536    0.0800
     48 H48         1.1923    2.0657   50.6781 H       1  ZINC000534890536    0.0700
     49 H49         0.8851    5.5869   48.4127 H       1  ZINC000534890536    0.1300
     50 H50         1.1821    5.5965   45.9694 H       1  ZINC000534890536    0.1300
     51 H51         0.6233    3.5963   44.6507 H       1  ZINC000534890536    0.1400
     52 H52        -0.2330    1.5778   45.7695 H       1  ZINC000534890536    0.1400
     53 H53        -4.6181    1.6445   52.7865 H       1  ZINC000534890536    0.0800
     54 H54        -5.7540    2.2137   51.5251 H       1  ZINC000534890536    0.0700
     55 H55        -9.2910    1.8217   53.8734 H       1  ZINC000534890536    0.1300
     56 H56       -10.7641    0.0464   53.0149 H       1  ZINC000534890536    0.1300
@<TRIPOS>BOND
     1     1     2    1
     2     1    33    1
     3     1    34    1
     4     1    35    1
     5     2     3    1
     6     3    32   ar
     7     3     4   ar
     8     4     5   ar
     9     4    36    1
    10     5     6   ar
    11     5    37    1
    12     6     7    1
    13     6    31   ar
    14     7     8    1
    15     7    30    1
    16     7     9    1
    17     9    10    1
    18     9    38    1
    19     9    39    1
    20    10    11    1
    21    10    40    1
    22    10    41    1
    23    11    12   am
    24    11    30    1
    25    12    13    2
    26    12    14   am
    27    14    15    1
    28    14    42    1
    29    15    16    1
    30    15    28    1
    31    15    17    1
    32    17    18    1
    33    17    43    1
    34    17    44    1
    35    18    19    1
    36    18    45    1
    37    18    46    1
    38    19    20    1
    39    19    47    1
    40    19    48    1
    41    20    21    1
    42    20    28   am
    43    21    26   ar
    44    21    22   ar
    45    22    23   ar
    46    22    49    1
    47    23    24   ar
    48    23    50    1
    49    24    25   ar
    50    24    51    1
    51    25    26   ar
    52    25    52    1
    53    26    27    1
    54    28    29    2
    55    30    53    1
    56    30    54    1
    57    31    32   ar
    58    31    55    1
    59    32    56    1
@<TRIPOS>SUBSTRUCTURE
     1 ZINC000534890536        1 TEMP              0 ****  ****    0 ROOT


##########                                Name:    ZINC000337709254
##########                DOCK_Rotatable_Bonds:                   7
##########                         Heavy_Atoms:                  22
##########                    Molecular_Weight:              329.42
##########                DOCK_Rotatable_Bonds:                   7
##########                       Formal_Charge:           0.0300004
##########                     HBond_Acceptors:                   8
##########                        HBond_Donors:                   2
##########                         Heavy_Atoms:                  22
##########                          Grid_Score:          -29.122395
##########                     Grid_vdw_energy:          -28.098957
##########                      Grid_es_energy:           -1.023437
##########           Internal_energy_repulsive:           10.990853

@<TRIPOS>MOLECULE
ZINC000337709254
 45 46 1 0 0
SMALL
USER_CHARGES


@<TRIPOS>ATOM
      1 C1         -7.2135    0.4921   52.9813 C.3     1  ZINC000337709254   -0.6700
      2 S2         -6.2624    1.4007   51.7321 S.o2    1  ZINC000337709254    2.6100
      3 O3         -6.5219    0.8833   50.4343 O.2     1  ZINC000337709254   -0.9500
      4 O4         -6.3112    2.7978   51.9872 O.2     1  ZINC000337709254   -0.9500
      5 N5         -4.6871    0.9860   52.0297 N.am    1  ZINC000337709254   -1.1200
      6 C6         -3.6145    1.5408   51.2003 C.3     1  ZINC000337709254    0.1200
      7 C7         -3.1665    2.8850   51.7779 C.3     1  ZINC000337709254   -0.1100
      8 H8         -4.0309    3.5115   51.9983 H       1  ZINC000337709254    0.1100
      9 C9         -2.3136    2.6700   53.0528 C.3     1  ZINC000337709254   -0.1200
     10 C10        -1.4810    3.9737   53.1309 C.3     1  ZINC000337709254   -0.1200
     11 C11        -1.1403    4.2936   51.6607 C.3     1  ZINC000337709254   -0.1400
     12 C12        -2.2147    3.6030   50.7989 C.3     1  ZINC000337709254    0.1500
     13 H13        -2.7616    4.3457   50.2180 H       1  ZINC000337709254    0.1000
     14 N14        -1.5887    2.6274   49.9031 N.am    1  ZINC000337709254   -0.7200
     15 C15        -1.1488    3.0126   48.6889 C.2     1  ZINC000337709254    0.5300
     16 O16        -1.2724    4.1667   48.3371 O.2     1  ZINC000337709254   -0.5100
     17 C17        -0.5032    2.0094   47.7681 C.3     1  ZINC000337709254    0.0200
     18 C18        -0.2166    2.6442   46.4714 C.1     1  ZINC000337709254    0.2000
     19 N19         0.0046    3.1342   45.4706 N.1     1  ZINC000337709254   -0.3900
     20 C20         0.8012    1.5054   48.3933 C.3     1  ZINC000337709254   -0.1500
     21 C21         1.4093    0.4301   47.4891 C.3     1  ZINC000337709254    0.0600
     22 O22         0.4672   -0.6297   47.3115 O.3     1  ZINC000337709254   -0.3700
     23 C23        -0.7537   -0.2266   46.6876 C.3     1  ZINC000337709254    0.0600
     24 C24        -1.4487    0.8224   47.5597 C.3     1  ZINC000337709254   -0.1300
     25 H25        -7.0444   -0.5778   52.8595 H       1  ZINC000337709254    0.1300
     26 H26        -6.8928    0.7996   53.9767 H       1  ZINC000337709254    0.1300
     27 H27        -8.2747    0.7085   52.8585 H       1  ZINC000337709254    0.1300
     28 H28        -4.4746    0.3758   52.7531 H       1  ZINC000337709254    0.4200
     29 H29        -2.7705    0.8511   51.1886 H       1  ZINC000337709254    0.0600
     30 H30        -3.9794    1.6857   50.1835 H       1  ZINC000337709254    0.0900
     31 H31        -2.9510    2.5655   53.9308 H       1  ZINC000337709254    0.0800
     32 H32        -1.6633    1.8024   52.9408 H       1  ZINC000337709254    0.0700
     33 H33        -2.0719    4.7780   53.5693 H       1  ZINC000337709254    0.0700
     34 H34        -0.5701    3.8107   53.7069 H       1  ZINC000337709254    0.0700
     35 H35        -1.1684    5.3708   51.4968 H       1  ZINC000337709254    0.0800
     36 H36        -0.1532    3.9035   51.4129 H       1  ZINC000337709254    0.0700
     37 H37        -1.4910    1.7040   50.1839 H       1  ZINC000337709254    0.4000
     38 H38         1.5011    2.3349   48.4942 H       1  ZINC000337709254    0.0900
     39 H39         0.5941    1.0808   49.3756 H       1  ZINC000337709254    0.1100
     40 H40         1.6535    0.8655   46.5201 H       1  ZINC000337709254    0.0500
     41 H41         2.3156    0.0373   47.9501 H       1  ZINC000337709254    0.1100
     42 H42        -0.5377    0.2002   45.7082 H       1  ZINC000337709254    0.0500
     43 H43        -1.4056   -1.0924   46.5714 H       1  ZINC000337709254    0.1100
     44 H44        -1.7012    0.3840   48.5252 H       1  ZINC000337709254    0.1100
     45 H45        -2.3577    1.1634   47.0644 H       1  ZINC000337709254    0.0900
@<TRIPOS>BOND
     1     1     2    1
     2     1    25    1
     3     1    26    1
     4     1    27    1
     5     2     3    2
     6     2     4    2
     7     2     5   am
     8     5     6    1
     9     5    28    1
    10     6     7    1
    11     6    29    1
    12     6    30    1
    13     7     8    1
    14     7    12    1
    15     7     9    1
    16     9    10    1
    17     9    31    1
    18     9    32    1
    19    10    11    1
    20    10    33    1
    21    10    34    1
    22    11    12    1
    23    11    35    1
    24    11    36    1
    25    12    13    1
    26    12    14    1
    27    14    15   am
    28    14    37    1
    29    15    16    2
    30    15    17    1
    31    17    24    1
    32    17    18    1
    33    17    20    1
    34    18    19    3
    35    20    21    1
    36    20    38    1
    37    20    39    1
    38    21    22    1
    39    21    40    1
    40    21    41    1
    41    22    23    1
    42    23    24    1
    43    23    42    1
    44    23    43    1
    45    24    44    1
    46    24    45    1
@<TRIPOS>SUBSTRUCTURE
     1 ZINC000337709254        1 TEMP              0 ****  ****    0 ROOT


##########                                Name:    ZINC001085817863
##########                DOCK_Rotatable_Bonds:                   7
##########                         Heavy_Atoms:                  24
##########                    Molecular_Weight:             326.442
##########                DOCK_Rotatable_Bonds:                   7
##########                       Formal_Charge:           0.0299998
##########                     HBond_Acceptors:                   5
##########                        HBond_Donors:                   0
##########                         Heavy_Atoms:                  24
##########                          Grid_Score:          -29.108772
##########                     Grid_vdw_energy:          -29.571735
##########                      Grid_es_energy:            0.462963
##########           Internal_energy_repulsive:           16.896999

@<TRIPOS>MOLECULE
ZINC001085817863
 50 52 1 0 0
SMALL
USER_CHARGES


@<TRIPOS>ATOM
      1 C1        -11.4660   -2.0029   60.6334 C.3     1  ZINC001085817863   -0.1400
      2 C2        -12.6480   -1.0875   60.3080 C.3     1  ZINC001085817863   -0.0700
      3 C3        -13.7928   -1.9135   59.7805 C.2     1  ZINC001085817863    0.1100
      4 C4        -14.0863   -2.1240   58.4613 C.2     1  ZINC001085817863   -0.2400
      5 C5        -13.3557   -1.5959   57.2969 C.2     1  ZINC001085817863    0.6000
      6 O6        -13.5003   -0.4353   56.9633 O.2     1  ZINC001085817863   -0.5300
      7 N7        -12.5266   -2.3988   56.6007 N.am    1  ZINC001085817863   -0.6100
      8 C8        -12.3523   -3.7968   57.0025 C.3     1  ZINC001085817863    0.0800
      9 C9        -11.7998   -1.8735   55.4423 C.3     1  ZINC001085817863    0.1300
     10 C10       -11.8519   -2.8927   54.3025 C.3     1  ZINC001085817863    0.0100
     11 H11       -11.2106   -3.7562   54.4796 H       1  ZINC001085817863    0.0800
     12 C12       -13.2799   -3.2676   53.8819 C.3     1  ZINC001085817863   -0.1400
     13 C13       -12.6858   -3.2400   52.4667 C.3     1  ZINC001085817863    0.0000
     14 N14       -11.6721   -2.2913   52.9678 N.3     1  ZINC001085817863   -0.4400
     15 C15       -10.3442   -2.6032   52.4227 C.3     1  ZINC001085817863    0.0700
     16 C16        -9.4607   -1.3867   52.5255 C.ar    1  ZINC001085817863   -0.1300
     17 C17        -9.9834   -0.1728   52.9441 C.ar    1  ZINC001085817863   -0.0700
     18 C18        -9.1330    0.9196   53.0241 C.ar    1  ZINC001085817863   -0.1700
     19 C19        -7.8023    0.7632   52.6865 C.ar    1  ZINC001085817863    0.1000
     20 N20        -7.3394   -0.4072   52.2921 N.ar    1  ZINC001085817863   -0.4800
     21 C21        -8.1176   -1.4684   52.2092 C.ar    1  ZINC001085817863    0.1200
     22 C22       -15.2755   -2.9825   58.4408 C.2     1  ZINC001085817863   -0.1900
     23 C23       -15.5960   -3.2155   59.7260 C.2     1  ZINC001085817863   -0.0200
     24 N24       -14.6971   -2.5746   60.5278 N.pl3   1  ZINC001085817863   -0.4400
     25 C25       -14.7188   -2.5942   61.9925 C.3     1  ZINC001085817863    0.0600
     26 H26       -10.6379   -1.4055   61.0148 H       1  ZINC001085817863    0.0600
     27 H27       -11.7667   -2.7305   61.3872 H       1  ZINC001085817863    0.0500
     28 H28       -11.1513   -2.5251   59.7297 H       1  ZINC001085817863    0.0600
     29 H29       -12.9627   -0.5655   61.2115 H       1  ZINC001085817863    0.0600
     30 H30       -12.3472   -0.3600   59.5541 H       1  ZINC001085817863    0.1100
     31 H31       -13.3174   -4.3031   56.9843 H       1  ZINC001085817863    0.0700
     32 H32       -11.6696   -4.2910   56.3115 H       1  ZINC001085817863    0.0700
     33 H33       -11.9403   -3.8364   58.0109 H       1  ZINC001085817863    0.0600
     34 H34       -12.2603   -0.9407   55.1170 H       1  ZINC001085817863    0.0800
     35 H35       -10.7614   -1.6893   55.7178 H       1  ZINC001085817863    0.1000
     36 H36       -13.5978   -4.2562   54.2133 H       1  ZINC001085817863    0.0800
     37 H37       -14.0195   -2.4895   54.0708 H       1  ZINC001085817863    0.1000
     38 H38       -12.2667   -4.1960   52.1529 H       1  ZINC001085817863    0.0700
     39 H39       -13.3554   -2.8081   51.7230 H       1  ZINC001085817863    0.0800
     40 H40        -9.9019   -3.4224   52.9896 H       1  ZINC001085817863    0.0900
     41 H41       -10.4401   -2.8951   51.3769 H       1  ZINC001085817863    0.0500
     42 H42       -11.0283   -0.0801   53.2013 H       1  ZINC001085817863    0.1300
     43 H43        -9.5062    1.8807   53.3459 H       1  ZINC001085817863    0.1300
     44 H44        -7.1335    1.6091   52.7458 H       1  ZINC001085817863    0.1600
     45 H45        -7.7026   -2.4103   51.8822 H       1  ZINC001085817863    0.1500
     46 H46       -15.7912   -3.3535   57.5674 H       1  ZINC001085817863    0.1600
     47 H47       -16.4266   -3.8153   60.0676 H       1  ZINC001085817863    0.1600
     48 H48       -14.1265   -3.4352   62.3534 H       1  ZINC001085817863    0.0800
     49 H49       -14.2990   -1.6637   62.3746 H       1  ZINC001085817863    0.0900
     50 H50       -15.7468   -2.6986   62.3392 H       1  ZINC001085817863    0.0900
@<TRIPOS>BOND
     1     1     2    1
     2     1    26    1
     3     1    27    1
     4     1    28    1
     5     2     3    1
     6     2    29    1
     7     2    30    1
     8     3    24    1
     9     3     4    2
    10     4     5    1
    11     4    22    1
    12     5     6    2
    13     5     7   am
    14     7     8    1
    15     7     9    1
    16     8    31    1
    17     8    32    1
    18     8    33    1
    19     9    10    1
    20     9    34    1
    21     9    35    1
    22    10    11    1
    23    10    14    1
    24    10    12    1
    25    12    13    1
    26    12    36    1
    27    12    37    1
    28    13    14    1
    29    13    38    1
    30    13    39    1
    31    14    15    1
    32    15    16    1
    33    15    40    1
    34    15    41    1
    35    16    21   ar
    36    16    17   ar
    37    17    18   ar
    38    17    42    1
    39    18    19   ar
    40    18    43    1
    41    19    20   ar
    42    19    44    1
    43    20    21   ar
    44    21    45    1
    45    22    23    2
    46    22    46    1
    47    23    24    1
    48    23    47    1
    49    24    25    1
    50    25    48    1
    51    25    49    1
    52    25    50    1
@<TRIPOS>SUBSTRUCTURE
     1 ZINC001085817863        1 TEMP              0 ****  ****    0 ROOT


##########                                Name:    ZINC000426607143
##########                DOCK_Rotatable_Bonds:                   3
##########                         Heavy_Atoms:                  25
##########                    Molecular_Weight:             419.302
##########                DOCK_Rotatable_Bonds:                   3
##########                       Formal_Charge:         1.49012e-07
##########                     HBond_Acceptors:                   7
##########                        HBond_Donors:                   0
##########                         Heavy_Atoms:                  25
##########                          Grid_Score:          -29.089993
##########                     Grid_vdw_energy:          -28.561499
##########                      Grid_es_energy:           -0.528493
##########           Internal_energy_repulsive:           25.099003

@<TRIPOS>MOLECULE
ZINC000426607143
 40 43 1 0 0
SMALL
USER_CHARGES


@<TRIPOS>ATOM
      1 C1         -7.4080    3.3388   53.0644 C.3     1  ZINC000426607143   -0.0900
      2 C2         -7.9453    1.9515   52.8240 C.2     1  ZINC000426607143    0.1600
      3 N3         -9.1843    1.6510   53.0667 N.2     1  ZINC000426607143   -0.4600
      4 S4         -9.3988    0.0158   52.6736 S.3     1  ZINC000426607143    0.2900
      5 C5         -7.7766   -0.2597   52.1718 C.2     1  ZINC000426607143   -0.1300
      6 C6         -7.1859   -1.5490   51.6618 C.3     1  ZINC000426607143   -0.0800
      7 C7         -7.1397    0.9356   52.3269 C.2     1  ZINC000426607143   -0.1200
      8 C8         -5.7060    1.1317   52.0017 C.2     1  ZINC000426607143    0.2500
      9 N9         -4.8455    0.1971   51.6891 N.2     1  ZINC000426607143   -0.3700
     10 O10        -3.7560    0.6872   51.4796 O.3     1  ZINC000426607143    0.0900
     11 C11        -3.8114    2.0130   51.6407 C.2     1  ZINC000426607143    0.2000
     12 C12        -2.6709    2.9835   51.4724 C.3     1  ZINC000426607143   -0.0300
     13 H13        -3.0375    3.9412   51.1032 H       1  ZINC000426607143    0.1600
     14 C14        -1.9183    3.1713   52.8101 C.3     1  ZINC000426607143   -0.1200
     15 C15        -0.4557    3.3084   52.3321 C.3     1  ZINC000426607143    0.1000
     16 N16        -0.3973    2.6071   51.0441 N.am    1  ZINC000426607143   -0.5800
     17 C17         0.7866    2.1906   50.4247 C.ar    1  ZINC000426607143    0.1700
     18 C18         1.4335    1.0426   50.8614 C.ar    1  ZINC000426607143   -0.1000
     19 C19         2.6021    0.6340   50.2480 C.ar    1  ZINC000426607143   -0.1000
     20 C20         3.1280    1.3671   49.2004 C.ar    1  ZINC000426607143   -0.1000
     21 C21         2.4865    2.5113   48.7625 C.ar    1  ZINC000426607143   -0.0900
     22 C22         1.3143    2.9222   49.3675 C.ar    1  ZINC000426607143   -0.0800
     23 Br23        0.4376    4.4869   48.7683 Br      1  ZINC000426607143   -0.0400
     24 C24        -1.6286    2.4177   50.5331 C.2     1  ZINC000426607143    0.5300
     25 O25        -1.8658    1.8704   49.4770 O.2     1  ZINC000426607143   -0.4900
     26 N26        -5.0444    2.3108   51.9671 N.2     1  ZINC000426607143   -0.4600
     27 H27        -7.5352    3.9389   52.1633 H       1  ZINC000426607143    0.0900
     28 H28        -7.9513    3.8012   53.8885 H       1  ZINC000426607143    0.0800
     29 H29        -6.3488    3.2799   53.3151 H       1  ZINC000426607143    0.1100
     30 H30        -7.9545   -2.3217   51.6513 H       1  ZINC000426607143    0.0800
     31 H31        -6.8067   -1.3999   50.6509 H       1  ZINC000426607143    0.0900
     32 H32        -6.3692   -1.8576   52.3145 H       1  ZINC000426607143    0.0900
     33 H33        -2.2486    4.0764   53.3198 H       1  ZINC000426607143    0.1100
     34 H34        -2.0388    2.2981   53.4513 H       1  ZINC000426607143    0.1000
     35 H35        -0.1988    4.3596   52.2011 H       1  ZINC000426607143    0.0900
     36 H36         0.2204    2.8404   53.0474 H       1  ZINC000426607143    0.0900
     37 H37         1.0239    0.4696   51.6800 H       1  ZINC000426607143    0.1400
     38 H38         3.1056   -0.2591   50.5875 H       1  ZINC000426607143    0.1400
     39 H39         4.0421    1.0457   48.7233 H       1  ZINC000426607143    0.1400
     40 H40         2.9000    3.0819   47.9439 H       1  ZINC000426607143    0.1400
@<TRIPOS>BOND
     1     1     2    1
     2     1    27    1
     3     1    28    1
     4     1    29    1
     5     2     7    1
     6     2     3    2
     7     3     4    1
     8     4     5    1
     9     5     6    1
    10     5     7    2
    11     6    30    1
    12     6    31    1
    13     6    32    1
    14     7     8    1
    15     8    26    1
    16     8     9    2
    17     9    10    1
    18    10    11    1
    19    11    12    1
    20    11    26    2
    21    12    13    1
    22    12    24    1
    23    12    14    1
    24    14    15    1
    25    14    33    1
    26    14    34    1
    27    15    16    1
    28    15    35    1
    29    15    36    1
    30    16    17    1
    31    16    24   am
    32    17    22   ar
    33    17    18   ar
    34    18    19   ar
    35    18    37    1
    36    19    20   ar
    37    19    38    1
    38    20    21   ar
    39    20    39    1
    40    21    22   ar
    41    21    40    1
    42    22    23    1
    43    24    25    2
@<TRIPOS>SUBSTRUCTURE
     1 ZINC000426607143        1 TEMP              0 ****  ****    0 ROOT


##########                                Name:    ZINC000444205493
##########                DOCK_Rotatable_Bonds:                   4
##########                         Heavy_Atoms:                  24
##########                    Molecular_Weight:             415.351
##########                DOCK_Rotatable_Bonds:                   4
##########                       Formal_Charge:         -0.00999995
##########                     HBond_Acceptors:                   6
##########                        HBond_Donors:                   1
##########                         Heavy_Atoms:                  24
##########                          Grid_Score:          -29.087528
##########                     Grid_vdw_energy:          -29.968191
##########                      Grid_es_energy:            0.880664
##########           Internal_energy_repulsive:            5.495371

@<TRIPOS>MOLECULE
ZINC000444205493
 47 49 1 0 0
SMALL
USER_CHARGES


@<TRIPOS>ATOM
      1 C1         -5.5648    2.8885   53.2500 C.3     1  ZINC000444205493   -0.1700
      2 C2         -6.7781    1.9952   53.2785 C.2     1  ZINC000444205493    0.5100
      3 O3         -7.0819    1.4174   54.3007 O.2     1  ZINC000444205493   -0.5100
      4 N4         -7.5257    1.8383   52.1681 N.am    1  ZINC000444205493   -0.6800
      5 C5         -8.6526    1.0087   52.1946 C.ar    1  ZINC000444205493    0.2300
      6 C6         -9.9146    1.5554   52.3833 C.ar    1  ZINC000444205493   -0.1400
      7 C7        -11.0251    0.7339   52.4085 C.ar    1  ZINC000444205493    0.0200
      8 C8        -10.8810   -0.6315   52.2465 C.ar    1  ZINC000444205493   -0.6900
      9 S9        -12.3001   -1.6753   52.2799 S.o2    1  ZINC000444205493    2.7100
     10 O10       -13.4279   -0.8242   52.1286 O.2     1  ZINC000444205493   -0.9500
     11 O11       -12.0216   -2.7595   51.4044 O.2     1  ZINC000444205493   -0.9500
     12 N12       -12.4003   -2.3180   53.8028 N.am    1  ZINC000444205493   -1.0100
     13 C13       -11.3744   -3.1559   54.4522 C.3     1  ZINC000444205493    0.1200
     14 C14       -11.6182   -2.9799   55.9737 C.3     1  ZINC000444205493   -0.1200
     15 C15       -13.1549   -2.8787   56.0283 C.3     1  ZINC000444205493   -0.0700
     16 C16       -13.7919   -4.2710   56.0867 C.3     1  ZINC000444205493   -0.1100
     17 C17       -14.1028   -4.4762   57.5926 C.3     1  ZINC000444205493   -0.1200
     18 C18       -14.5374   -3.0612   58.0519 C.3     1  ZINC000444205493   -0.1000
     19 H19       -15.5808   -2.8802   57.7939 H       1  ZINC000444205493    0.0700
     20 C20       -14.3234   -2.8978   59.5579 C.3     1  ZINC000444205493   -0.1500
     21 C21       -13.6122   -2.1056   57.2646 C.3     1  ZINC000444205493   -0.1100
     22 C22       -13.5258   -2.1425   54.7367 C.3     1  ZINC000444205493    0.1300
     23 C23        -9.6255   -1.1799   52.0578 C.ar    1  ZINC000444205493    0.0300
     24 C24        -8.5113   -0.3635   52.0263 C.ar    1  ZINC000444205493   -0.1500
     25 Br25       -6.7948   -1.1139   51.7683 Br      1  ZINC000444205493   -0.0300
     26 H26        -5.0918    2.8903   54.2320 H       1  ZINC000444205493    0.1000
     27 H27        -4.8583    2.5182   52.5071 H       1  ZINC000444205493    0.1000
     28 H28        -5.8666    3.9031   52.9903 H       1  ZINC000444205493    0.1000
     29 H29        -7.2827    2.3004   51.3506 H       1  ZINC000444205493    0.4200
     30 H30       -10.0282    2.6219   52.5107 H       1  ZINC000444205493    0.1600
     31 H31       -12.0071    1.1590   52.5553 H       1  ZINC000444205493    0.1500
     32 H32       -11.5014   -4.2001   54.1663 H       1  ZINC000444205493    0.0800
     33 H33       -10.3765   -2.8078   54.1855 H       1  ZINC000444205493    0.0800
     34 H34       -11.2635   -3.8479   56.5296 H       1  ZINC000444205493    0.0900
     35 H35       -11.1529   -2.0653   56.3411 H       1  ZINC000444205493    0.0800
     36 H36       -14.7100   -4.2965   55.4997 H       1  ZINC000444205493    0.0700
     37 H37       -13.0906   -5.0275   55.7345 H       1  ZINC000444205493    0.0700
     38 H38       -14.9149   -5.1911   57.7250 H       1  ZINC000444205493    0.0700
     39 H39       -13.2113   -4.7994   58.1300 H       1  ZINC000444205493    0.0700
     40 H40       -13.2726   -3.0632   59.7957 H       1  ZINC000444205493    0.0500
     41 H41       -14.6096   -1.8900   59.8585 H       1  ZINC000444205493    0.0500
     42 H42       -14.9356   -3.6240   60.0928 H       1  ZINC000444205493    0.0500
     43 H43       -12.7516   -1.8304   57.8742 H       1  ZINC000444205493    0.0700
     44 H44       -14.1619   -1.2129   56.9663 H       1  ZINC000444205493    0.0700
     45 H45       -13.6828   -1.0840   54.9439 H       1  ZINC000444205493    0.0700
     46 H46       -14.4292   -2.5760   54.3076 H       1  ZINC000444205493    0.0800
     47 H47        -9.5163   -2.2469   51.9312 H       1  ZINC000444205493    0.1500
@<TRIPOS>BOND
     1     1     2    1
     2     1    26    1
     3     1    27    1
     4     1    28    1
     5     2     3    2
     6     2     4   am
     7     4     5    1
     8     4    29    1
     9     5    24   ar
    10     5     6   ar
    11     6     7   ar
    12     6    30    1
    13     7     8   ar
    14     7    31    1
    15     8     9    1
    16     8    23   ar
    17     9    10    2
    18     9    11    2
    19     9    12   am
    20    12    22    1
    21    12    13    1
    22    13    14    1
    23    13    32    1
    24    13    33    1
    25    14    15    1
    26    14    34    1
    27    14    35    1
    28    15    21    1
    29    15    16    1
    30    15    22    1
    31    16    17    1
    32    16    36    1
    33    16    37    1
    34    17    18    1
    35    17    38    1
    36    17    39    1
    37    18    19    1
    38    18    20    1
    39    18    21    1
    40    20    40    1
    41    20    41    1
    42    20    42    1
    43    21    43    1
    44    21    44    1
    45    22    45    1
    46    22    46    1
    47    23    24   ar
    48    23    47    1
    49    24    25    1
@<TRIPOS>SUBSTRUCTURE
     1 ZINC000444205493        1 TEMP              0 ****  ****    0 ROOT


##########                                Name:    ZINC001513543414
##########                DOCK_Rotatable_Bonds:                   6
##########                         Heavy_Atoms:                  26
##########                    Molecular_Weight:             364.488
##########                DOCK_Rotatable_Bonds:                   6
##########                       Formal_Charge:         -0.00999974
##########                     HBond_Acceptors:                   7
##########                        HBond_Donors:                   0
##########                         Heavy_Atoms:                  26
##########                          Grid_Score:          -29.047571
##########                     Grid_vdw_energy:          -28.368351
##########                      Grid_es_energy:           -0.679221
##########           Internal_energy_repulsive:           17.876688

@<TRIPOS>MOLECULE
ZINC001513543414
 58 61 1 0 0
SMALL
USER_CHARGES


@<TRIPOS>ATOM
      1 C1        -15.1325   -2.0946   62.5728 C.3     1  ZINC001513543414   -0.1500
      2 C2        -16.2035   -1.5575   61.6214 C.3     1  ZINC001513543414   -0.1200
      3 C3        -15.7814   -1.8244   60.1753 C.3     1  ZINC001513543414    0.1100
      4 C4        -15.8091   -3.3284   59.8959 C.3     1  ZINC001513543414   -0.1500
      5 C5        -16.7357   -1.0924   59.2075 C.3     1  ZINC001513543414   -0.1500
      6 C6        -15.7640   -0.5846   58.1075 C.3     1  ZINC001513543414   -0.1500
      7 C7        -14.4979   -0.2851   58.9489 C.3     1  ZINC001513543414    0.0700
      8 H8        -14.5775    0.6966   59.4159 H       1  ZINC001513543414    0.0800
      9 C9        -13.2474   -0.3543   58.0700 C.3     1  ZINC001513543414    0.1100
     10 N10       -12.4239   -1.4940   58.4812 N.pl3   1  ZINC001513543414   -0.4600
     11 C11       -12.3388   -2.7141   57.8699 C.2     1  ZINC001513543414    0.1900
     12 C12       -13.0818   -3.1468   56.6323 C.3     1  ZINC001513543414    0.1800
     13 H13       -13.8344   -2.4051   56.3649 H       1  ZINC001513543414    0.1000
     14 C14       -12.0934   -3.3576   55.4578 C.3     1  ZINC001513543414   -0.1500
     15 C15       -12.8894   -4.3607   54.5790 C.3     1  ZINC001513543414   -0.1500
     16 C16       -13.6366   -5.2014   55.6365 C.3     1  ZINC001513543414    0.0500
     17 O17       -13.6967   -4.4279   56.8423 O.3     1  ZINC001513543414   -0.3500
     18 N18       -11.4955   -3.4330   58.5553 N.2     1  ZINC001513543414   -0.2600
     19 N19       -11.0456   -2.7554   59.5504 N.2     1  ZINC001513543414   -0.3100
     20 C20       -11.5782   -1.5561   59.5503 C.2     1  ZINC001513543414    0.3400
     21 N21       -11.3345   -0.5464   60.4677 N.3     1  ZINC001513543414   -0.4500
     22 C22       -10.1613    0.2600   60.0688 C.3     1  ZINC001513543414    0.0500
     23 C23        -9.4968    0.6789   61.4039 C.3     1  ZINC001513543414   -0.1500
     24 C24        -9.7055   -0.5912   62.2699 C.3     1  ZINC001513543414    0.0700
     25 H25        -8.9330   -1.3313   62.0612 H       1  ZINC001513543414    0.0800
     26 O26        -9.7217   -0.2582   63.6595 O.3     1  ZINC001513543414   -0.3800
     27 C27        -8.4697    0.2176   64.1577 C.3     1  ZINC001513543414    0.0300
     28 C28       -11.0879   -1.1013   61.8112 C.3     1  ZINC001513543414    0.0600
     29 O29       -14.4622   -1.3129   59.9519 O.3     1  ZINC001513543414   -0.3600
     30 H30       -15.4333   -1.9045   63.6031 H       1  ZINC001513543414    0.0500
     31 H31       -15.0163   -3.1677   62.4205 H       1  ZINC001513543414    0.0500
     32 H32       -14.1849   -1.5945   62.3728 H       1  ZINC001513543414    0.0600
     33 H33       -17.1511   -2.0576   61.8215 H       1  ZINC001513543414    0.0700
     34 H34       -16.3198   -0.4845   61.7738 H       1  ZINC001513543414    0.0600
     35 H35       -16.8212   -3.7062   60.0403 H       1  ZINC001513543414    0.0700
     36 H36       -15.4955   -3.5129   58.8684 H       1  ZINC001513543414    0.0600
     37 H37       -15.1302   -3.8375   60.5799 H       1  ZINC001513543414    0.0700
     38 H38       -17.4685   -1.7824   58.7893 H       1  ZINC001513543414    0.0900
     39 H39       -17.2279   -0.2571   59.7058 H       1  ZINC001513543414    0.0800
     40 H40       -15.5691   -1.3605   57.3670 H       1  ZINC001513543414    0.0800
     41 H41       -16.1446    0.3206   57.6344 H       1  ZINC001513543414    0.0900
     42 H42       -13.5421   -0.4762   57.0278 H       1  ZINC001513543414    0.1000
     43 H43       -12.6745    0.5665   58.1803 H       1  ZINC001513543414    0.1100
     44 H44       -11.9131   -2.4246   54.9237 H       1  ZINC001513543414    0.0900
     45 H45       -11.1580   -3.7961   55.8053 H       1  ZINC001513543414    0.0900
     46 H46       -13.5930   -3.8365   53.9323 H       1  ZINC001513543414    0.0800
     47 H47       -12.2139   -4.9848   53.9939 H       1  ZINC001513543414    0.0900
     48 H48       -14.6460   -5.4206   55.2888 H       1  ZINC001513543414    0.0700
     49 H49       -13.0970   -6.1308   55.8187 H       1  ZINC001513543414    0.0700
     50 H50        -9.4727   -0.3404   59.4741 H       1  ZINC001513543414    0.0600
     51 H51       -10.4783    1.1405   59.5099 H       1  ZINC001513543414    0.0900
     52 H52        -8.4358    0.8860   61.2639 H       1  ZINC001513543414    0.0800
     53 H53       -10.0062    1.5376   61.8410 H       1  ZINC001513543414    0.0900
     54 H54        -8.5649    0.4485   65.2187 H       1  ZINC001513543414    0.0900
     55 H55        -7.7083   -0.5500   64.0196 H       1  ZINC001513543414    0.0400
     56 H56        -8.1809    1.1175   63.6145 H       1  ZINC001513543414    0.0400
     57 H57       -11.8580   -0.7572   62.5017 H       1  ZINC001513543414    0.1000
     58 H58       -11.0855   -2.1905   61.7679 H       1  ZINC001513543414    0.0900
@<TRIPOS>BOND
     1     1     2    1
     2     1    30    1
     3     1    31    1
     4     1    32    1
     5     2     3    1
     6     2    33    1
     7     2    34    1
     8     3    29    1
     9     3     4    1
    10     3     5    1
    11     4    35    1
    12     4    36    1
    13     4    37    1
    14     5     6    1
    15     5    38    1
    16     5    39    1
    17     6     7    1
    18     6    40    1
    19     6    41    1
    20     7     8    1
    21     7     9    1
    22     7    29    1
    23     9    10    1
    24     9    42    1
    25     9    43    1
    26    10    20    1
    27    10    11    1
    28    11    12    1
    29    11    18    2
    30    12    13    1
    31    12    17    1
    32    12    14    1
    33    14    15    1
    34    14    44    1
    35    14    45    1
    36    15    16    1
    37    15    46    1
    38    15    47    1
    39    16    17    1
    40    16    48    1
    41    16    49    1
    42    18    19    1
    43    19    20    2
    44    20    21    1
    45    21    28    1
    46    21    22    1
    47    22    23    1
    48    22    50    1
    49    22    51    1
    50    23    24    1
    51    23    52    1
    52    23    53    1
    53    24    25    1
    54    24    26    1
    55    24    28    1
    56    26    27    1
    57    27    54    1
    58    27    55    1
    59    27    56    1
    60    28    57    1
    61    28    58    1
@<TRIPOS>SUBSTRUCTURE
     1 ZINC001513543414        1 TEMP              0 ****  ****    0 ROOT


##########                                Name:    ZINC000763800048
##########                DOCK_Rotatable_Bonds:                   8
##########                         Heavy_Atoms:                  23
##########                    Molecular_Weight:             329.783
##########                DOCK_Rotatable_Bonds:                   8
##########                       Formal_Charge:           0.0199994
##########                     HBond_Acceptors:                   5
##########                        HBond_Donors:                   1
##########                         Heavy_Atoms:                  23
##########                          Grid_Score:          -29.043053
##########                     Grid_vdw_energy:          -29.082634
##########                      Grid_es_energy:            0.039581
##########           Internal_energy_repulsive:            5.171975

@<TRIPOS>MOLECULE
ZINC000763800048
 39 40 1 0 0
SMALL
USER_CHARGES


@<TRIPOS>ATOM
      1 C1          0.1898   -0.5630   46.5880 C.3     1  ZINC000763800048    0.0400
      2 O2          0.4196    0.6792   47.3039 O.3     1  ZINC000763800048   -0.3600
      3 C3         -0.5436    1.6113   47.2318 C.2     1  ZINC000763800048    0.4600
      4 O4         -1.5758    1.3697   46.6522 O.2     1  ZINC000763800048   -0.4900
      5 C5         -0.3373    2.9590   47.8737 C.3     1  ZINC000763800048   -0.0700
      6 C6         -0.6682    2.8722   49.3414 C.ar    1  ZINC000763800048   -0.0600
      7 C7          0.2174    3.3699   50.2795 C.ar    1  ZINC000763800048   -0.1200
      8 C8         -0.0824    3.2923   51.6274 C.ar    1  ZINC000763800048   -0.1000
      9 C9         -1.2680    2.7176   52.0407 C.ar    1  ZINC000763800048   -0.1100
     10 C10        -2.1601    2.2171   51.1007 C.ar    1  ZINC000763800048    0.1500
     11 N11        -3.3616    1.6347   51.5158 N.am    1  ZINC000763800048   -0.6700
     12 C12        -4.3273    2.3990   52.0630 C.2     1  ZINC000763800048    0.5500
     13 O13        -4.1537    3.5963   52.1959 O.2     1  ZINC000763800048   -0.5200
     14 C14        -5.5848    1.7894   52.4974 C.2     1  ZINC000763800048   -0.2100
     15 C15        -6.2169    0.9052   51.6987 C.2     1  ZINC000763800048   -0.0100
     16 C16        -7.4805    0.2910   52.1362 C.ar    1  ZINC000763800048   -0.0800
     17 C17        -8.5504    1.0962   52.5401 C.ar    1  ZINC000763800048   -0.0900
     18 C18        -9.7310    0.5140   52.9487 C.ar    1  ZINC000763800048   -0.1100
     19 C19        -9.8591   -0.8656   52.9605 C.ar    1  ZINC000763800048   -0.0200
     20 Cl20      -11.3496   -1.5901   53.4773 Cl      1  ZINC000763800048   -0.0600
     21 C21        -8.8037   -1.6695   52.5615 C.ar    1  ZINC000763800048   -0.1100
     22 C22        -7.6192   -1.1008   52.1449 C.ar    1  ZINC000763800048   -0.0800
     23 C23        -1.8582    2.3010   49.7478 C.ar    1  ZINC000763800048   -0.1300
     24 H24         1.0428   -1.2268   46.7291 H       1  ZINC000763800048    0.1000
     25 H25        -0.7108   -1.0423   46.9717 H       1  ZINC000763800048    0.0600
     26 H26         0.0651   -0.3525   45.5259 H       1  ZINC000763800048    0.0600
     27 H27         0.7022    3.2637   47.7530 H       1  ZINC000763800048    0.1200
     28 H28        -0.9885    3.6919   47.3973 H       1  ZINC000763800048    0.1200
     29 H29         1.1453    3.8198   49.9590 H       1  ZINC000763800048    0.1200
     30 H30         0.6117    3.6813   52.3577 H       1  ZINC000763800048    0.1300
     31 H31        -1.5014    2.6571   53.0934 H       1  ZINC000763800048    0.1400
     32 H32        -3.5000    0.6804   51.4099 H       1  ZINC000763800048    0.4100
     33 H33        -6.0068    2.0474   53.4574 H       1  ZINC000763800048    0.1300
     34 H34        -5.7957    0.6481   50.7380 H       1  ZINC000763800048    0.1400
     35 H35        -8.4517    2.1718   52.5319 H       1  ZINC000763800048    0.1400
     36 H36       -10.5580    1.1346   53.2607 H       1  ZINC000763800048    0.1400
     37 H37        -8.9106   -2.7441   52.5733 H       1  ZINC000763800048    0.1400
     38 H38        -6.7973   -1.7287   51.8338 H       1  ZINC000763800048    0.1400
     39 H39        -2.5499    1.9131   49.0145 H       1  ZINC000763800048    0.1300
@<TRIPOS>BOND
     1     1     2    1
     2     1    24    1
     3     1    25    1
     4     1    26    1
     5     2     3    1
     6     3     4    2
     7     3     5    1
     8     5     6    1
     9     5    27    1
    10     5    28    1
    11     6    23   ar
    12     6     7   ar
    13     7     8   ar
    14     7    29    1
    15     8     9   ar
    16     8    30    1
    17     9    10   ar
    18     9    31    1
    19    10    11    1
    20    10    23   ar
    21    11    12   am
    22    11    32    1
    23    12    13    2
    24    12    14    1
    25    14    15    2
    26    14    33    1
    27    15    16    1
    28    15    34    1
    29    16    22   ar
    30    16    17   ar
    31    17    18   ar
    32    17    35    1
    33    18    19   ar
    34    18    36    1
    35    19    20    1
    36    19    21   ar
    37    21    22   ar
    38    21    37    1
    39    22    38    1
    40    23    39    1
@<TRIPOS>SUBSTRUCTURE
     1 ZINC000763800048        1 TEMP              0 ****  ****    0 ROOT


##########                                Name:    ZINC000885154703
##########                DOCK_Rotatable_Bonds:                   5
##########                         Heavy_Atoms:                  24
##########                    Molecular_Weight:             396.259
##########                DOCK_Rotatable_Bonds:                   5
##########                       Formal_Charge:          -0.0099998
##########                     HBond_Acceptors:                   6
##########                        HBond_Donors:                   1
##########                         Heavy_Atoms:                  24
##########                          Grid_Score:          -29.020739
##########                     Grid_vdw_energy:          -28.839291
##########                      Grid_es_energy:           -0.181449
##########           Internal_energy_repulsive:            7.307790

@<TRIPOS>MOLECULE
ZINC000885154703
 43 45 1 0 0
SMALL
USER_CHARGES


@<TRIPOS>ATOM
      1 C1        -15.2531   -2.3886   57.7781 C.3     1  ZINC000885154703   -0.1500
      2 C2        -14.6258   -3.7526   58.0735 C.3     1  ZINC000885154703   -0.0300
      3 C3        -13.9707   -4.2851   56.8252 C.2     1  ZINC000885154703    0.1700
      4 N4        -13.8200   -5.5366   56.5097 N.2     1  ZINC000885154703   -0.3800
      5 O5        -13.2551   -5.6350   55.4407 O.3     1  ZINC000885154703    0.0800
      6 C6        -12.9835   -4.4187   54.9582 C.2     1  ZINC000885154703    0.1800
      7 C7        -12.2906   -4.1033   53.6577 C.3     1  ZINC000885154703    0.0000
      8 H8        -12.2569   -4.9922   53.0277 H       1  ZINC000885154703    0.1300
      9 C9        -10.8600   -3.5949   53.9310 C.3     1  ZINC000885154703   -0.1200
     10 C10       -10.6365   -2.4965   52.8619 C.3     1  ZINC000885154703   -0.1300
     11 C11       -12.0217   -1.8078   52.7847 C.3     1  ZINC000885154703    0.1400
     12 H12       -12.1398   -1.0960   53.6017 H       1  ZINC000885154703    0.1000
     13 N13       -12.1894   -1.1368   51.4932 N.am    1  ZINC000885154703   -0.7100
     14 C14       -13.0338   -0.0925   51.3811 C.2     1  ZINC000885154703    0.5700
     15 O15       -13.6575    0.2919   52.3512 O.2     1  ZINC000885154703   -0.5100
     16 C16       -13.2015    0.5851   50.0795 C.ar    1  ZINC000885154703   -0.1600
     17 C17       -14.0814    0.0655   49.1252 C.ar    1  ZINC000885154703    0.1500
     18 F18       -14.7817   -1.0590   49.3904 F       1  ZINC000885154703   -0.1200
     19 C19       -14.2330    0.7064   47.9088 C.ar    1  ZINC000885154703   -0.1500
     20 C20       -13.5170    1.8566   47.6368 C.ar    1  ZINC000885154703   -0.0400
     21 C21       -12.6437    2.3762   48.5785 C.ar    1  ZINC000885154703   -0.1100
     22 Br22      -11.6700    3.9508   48.1934 Br      1  ZINC000885154703   -0.0300
     23 C23       -12.4864    1.7512   49.7980 C.ar    1  ZINC000885154703    0.0100
     24 C24       -11.5361    2.3192   50.8204 C.3     1  ZINC000885154703   -0.1300
     25 C25       -13.0299   -2.9680   52.9283 C.3     1  ZINC000885154703   -0.1300
     26 N26       -13.4399   -3.5521   55.8302 N.2     1  ZINC000885154703   -0.4800
     27 H27       -14.4781   -1.6956   57.4506 H       1  ZINC000885154703    0.0600
     28 H28       -16.0010   -2.4952   56.9925 H       1  ZINC000885154703    0.0600
     29 H29       -15.7270   -2.0035   58.6810 H       1  ZINC000885154703    0.0700
     30 H30       -13.8779   -3.6460   58.8592 H       1  ZINC000885154703    0.1000
     31 H31       -15.4007   -4.4456   58.4011 H       1  ZINC000885154703    0.0900
     32 H32       -10.7905   -3.1715   54.9330 H       1  ZINC000885154703    0.0800
     33 H33       -10.1379   -4.4017   53.8058 H       1  ZINC000885154703    0.0900
     34 H34        -9.8719   -1.7911   53.1868 H       1  ZINC000885154703    0.0800
     35 H35       -10.3716   -2.9400   51.9021 H       1  ZINC000885154703    0.0800
     36 H36       -11.6927   -1.4443   50.7189 H       1  ZINC000885154703    0.4000
     37 H37       -14.9121    0.3069   47.1700 H       1  ZINC000885154703    0.1500
     38 H38       -13.6386    2.3528   46.6853 H       1  ZINC000885154703    0.1500
     39 H39       -12.0676    3.0264   51.4572 H       1  ZINC000885154703    0.0900
     40 H40       -11.1342    1.5110   51.4315 H       1  ZINC000885154703    0.0800
     41 H41       -10.7191    2.8312   50.3121 H       1  ZINC000885154703    0.0900
     42 H42       -13.3545   -3.3045   51.9437 H       1  ZINC000885154703    0.0900
     43 H43       -13.8897   -2.6449   53.5151 H       1  ZINC000885154703    0.0800
@<TRIPOS>BOND
     1     1     2    1
     2     1    27    1
     3     1    28    1
     4     1    29    1
     5     2     3    1
     6     2    30    1
     7     2    31    1
     8     3    26    1
     9     3     4    2
    10     4     5    1
    11     5     6    1
    12     6     7    1
    13     6    26    2
    14     7     8    1
    15     7    25    1
    16     7     9    1
    17     9    10    1
    18     9    32    1
    19     9    33    1
    20    10    11    1
    21    10    34    1
    22    10    35    1
    23    11    12    1
    24    11    13    1
    25    11    25    1
    26    13    14   am
    27    13    36    1
    28    14    15    2
    29    14    16    1
    30    16    23   ar
    31    16    17   ar
    32    17    18    1
    33    17    19   ar
    34    19    20   ar
    35    19    37    1
    36    20    21   ar
    37    20    38    1
    38    21    22    1
    39    21    23   ar
    40    23    24    1
    41    24    39    1
    42    24    40    1
    43    24    41    1
    44    25    42    1
    45    25    43    1
@<TRIPOS>SUBSTRUCTURE
     1 ZINC000885154703        1 TEMP              0 ****  ****    0 ROOT


##########                                Name:    ZINC001327099466
##########                DOCK_Rotatable_Bonds:                   7
##########                         Heavy_Atoms:                  27
##########                    Molecular_Weight:             374.483
##########                DOCK_Rotatable_Bonds:                   7
##########                       Formal_Charge:           0.0199998
##########                     HBond_Acceptors:                   7
##########                        HBond_Donors:                   1
##########                         Heavy_Atoms:                  27
##########                          Grid_Score:          -29.008715
##########                     Grid_vdw_energy:          -29.594875
##########                      Grid_es_energy:            0.586161
##########           Internal_energy_repulsive:           18.011433

@<TRIPOS>MOLECULE
ZINC001327099466
 57 60 1 0 0
SMALL
USER_CHARGES


@<TRIPOS>ATOM
      1 O1         -2.6220    1.2951   50.8722 O.2     1  ZINC001327099466   -0.4800
      2 C2         -1.7943    2.1296   51.1754 C.2     1  ZINC001327099466    0.5300
      3 N3         -2.1413    3.1688   51.9605 N.am    1  ZINC001327099466   -0.6000
      4 C4         -3.4569    3.2887   52.4213 C.2     1  ZINC001327099466    0.2900
      5 N5         -4.3211    2.3090   52.5506 N.2     1  ZINC001327099466   -0.3100
      6 N6         -5.5188    2.8451   53.0410 N.pl3   1  ZINC001327099466   -0.3500
      7 C7         -6.7432    2.0942   53.3294 C.3     1  ZINC001327099466    0.1700
      8 C8         -7.9454    3.0391   53.2755 C.3     1  ZINC001327099466   -0.1300
      9 C9         -9.2242    2.2549   53.5766 C.3     1  ZINC001327099466   -0.1200
     10 C10        -9.3997    1.1465   52.5366 C.3     1  ZINC001327099466   -0.1300
     11 C11        -8.1974    0.2018   52.5904 C.3     1  ZINC001327099466   -0.1200
     12 C12        -6.9187    0.9859   52.2892 C.3     1  ZINC001327099466   -0.1300
     13 C13        -5.3472    4.1743   53.2019 C.2     1  ZINC001327099466    0.0700
     14 C14        -4.0823    4.4773   52.8324 C.2     1  ZINC001327099466   -0.2700
     15 C15        -0.3900    2.0017   50.6835 C.2     1  ZINC001327099466    0.5100
     16 O16         0.4811    1.6069   51.4306 O.2     1  ZINC001327099466   -0.5100
     17 N17        -0.0900    2.3247   49.4098 N.am    1  ZINC001327099466   -0.5700
     18 C18        -1.1337    2.8042   48.4935 C.3     1  ZINC001327099466    0.0400
     19 C19        -1.1148    1.9397   47.2289 C.3     1  ZINC001327099466   -0.1300
     20 C20         0.2951    1.9446   46.6335 C.3     1  ZINC001327099466   -0.1200
     21 C21         1.2787    1.3467   47.6421 C.3     1  ZINC001327099466    0.0800
     22 H22         0.9716    0.3310   47.8914 H       1  ZINC001327099466    0.0700
     23 O23         2.5894    1.3227   47.0734 O.3     1  ZINC001327099466   -0.3500
     24 C24         2.8854    0.1292   46.3454 C.3     1  ZINC001327099466    0.0600
     25 C25         3.1921    0.3747   44.8586 C.3     1  ZINC001327099466   -0.1600
     26 C26         4.6628    0.5508   45.2722 C.3     1  ZINC001327099466   -0.1400
     27 C27         4.3447   -0.3339   46.4890 C.3     1  ZINC001327099466   -0.1400
     28 C28         1.2879    2.2098   48.9130 C.3     1  ZINC001327099466    0.0900
     29 H29        -1.4789    3.8335   52.2060 H       1  ZINC001327099466    0.4300
     30 H30        -6.6728    1.6521   54.3231 H       1  ZINC001327099466    0.1000
     31 H31        -7.8204    3.8286   54.0165 H       1  ZINC001327099466    0.0700
     32 H32        -8.0159    3.4811   52.2817 H       1  ZINC001327099466    0.0700
     33 H33        -9.1538    1.8128   54.5704 H       1  ZINC001327099466    0.0700
     34 H34       -10.0807    2.9280   53.5382 H       1  ZINC001327099466    0.0700
     35 H35       -10.3106    0.5878   52.7510 H       1  ZINC001327099466    0.0700
     36 H36        -9.4701    1.5887   51.5427 H       1  ZINC001327099466    0.0700
     37 H37        -8.1270   -0.2405   53.5842 H       1  ZINC001327099466    0.0700
     38 H38        -8.3224   -0.5880   51.8494 H       1  ZINC001327099466    0.0700
     39 H39        -6.9890    1.4280   51.2955 H       1  ZINC001327099466    0.0700
     40 H40        -6.0621    0.3128   52.3276 H       1  ZINC001327099466    0.0700
     41 H41        -6.0877    4.8714   53.5653 H       1  ZINC001327099466    0.1800
     42 H42        -3.6342    5.4599   52.8455 H       1  ZINC001327099466    0.1700
     43 H43        -2.1080    2.7249   48.9757 H       1  ZINC001327099466    0.1600
     44 H44        -0.9382    3.8433   48.2287 H       1  ZINC001327099466    0.0700
     45 H45        -1.3993    0.9184   47.4821 H       1  ZINC001327099466    0.0700
     46 H46        -1.8184    2.3441   46.5013 H       1  ZINC001327099466    0.0900
     47 H47         0.3055    1.3501   45.7200 H       1  ZINC001327099466    0.0800
     48 H48         0.5886    2.9688   46.4034 H       1  ZINC001327099466    0.0800
     49 H49         2.1568   -0.6631   46.5173 H       1  ZINC001327099466    0.0700
     50 H50         3.0174   -0.4963   44.2272 H       1  ZINC001327099466    0.0900
     51 H51         2.7379    1.2833   44.4633 H       1  ZINC001327099466    0.0700
     52 H52         5.3692    0.0985   44.5761 H       1  ZINC001327099466    0.0700
     53 H53         4.9229    1.5764   45.5340 H       1  ZINC001327099466    0.0800
     54 H54         4.8210    0.0026   47.4099 H       1  ZINC001327099466    0.0800
     55 H55         4.4851   -1.3988   46.3033 H       1  ZINC001327099466    0.0900
     56 H56         1.6816    3.1991   48.6799 H       1  ZINC001327099466    0.0900
     57 H57         1.9104    1.7360   49.6720 H       1  ZINC001327099466    0.1000
@<TRIPOS>BOND
     1     1     2    2
     2     2     3   am
     3     2    15    1
     4     3     4    1
     5     3    29    1
     6     4    14    1
     7     4     5    2
     8     5     6    1
     9     6     7    1
    10     6    13    1
    11     7    12    1
    12     7     8    1
    13     7    30    1
    14     8     9    1
    15     8    31    1
    16     8    32    1
    17     9    10    1
    18     9    33    1
    19     9    34    1
    20    10    11    1
    21    10    35    1
    22    10    36    1
    23    11    12    1
    24    11    37    1
    25    11    38    1
    26    12    39    1
    27    12    40    1
    28    13    14    2
    29    13    41    1
    30    14    42    1
    31    15    16    2
    32    15    17   am
    33    17    28    1
    34    17    18    1
    35    18    19    1
    36    18    43    1
    37    18    44    1
    38    19    20    1
    39    19    45    1
    40    19    46    1
    41    20    21    1
    42    20    47    1
    43    20    48    1
    44    21    22    1
    45    21    23    1
    46    21    28    1
    47    23    24    1
    48    24    27    1
    49    24    25    1
    50    24    49    1
    51    25    26    1
    52    25    50    1
    53    25    51    1
    54    26    27    1
    55    26    52    1
    56    26    53    1
    57    27    54    1
    58    27    55    1
    59    28    56    1
    60    28    57    1
@<TRIPOS>SUBSTRUCTURE
     1 ZINC001327099466        1 TEMP              0 ****  ****    0 ROOT


##########                                Name:    ZINC000054627026
##########                DOCK_Rotatable_Bonds:                   5
##########                         Heavy_Atoms:                  28
##########                    Molecular_Weight:              370.37
##########                DOCK_Rotatable_Bonds:                   5
##########                       Formal_Charge:         6.85453e-07
##########                     HBond_Acceptors:                   8
##########                        HBond_Donors:                   2
##########                         Heavy_Atoms:                  28
##########                          Grid_Score:          -28.999624
##########                     Grid_vdw_energy:          -27.903772
##########                      Grid_es_energy:           -1.095852
##########           Internal_energy_repulsive:            4.520083

@<TRIPOS>MOLECULE
ZINC000054627026
 42 46 1 0 0
SMALL
USER_CHARGES


@<TRIPOS>ATOM
      1 O1         -2.7517    1.8779   49.5270 O.2     1  ZINC000054627026   -0.5200
      2 C2         -1.9520    1.8288   50.4418 C.2     1  ZINC000054627026    0.6100
      3 N3         -2.3881    1.7734   51.7158 N.am    1  ZINC000054627026   -0.6500
      4 C4         -3.7621    1.7782   51.9865 C.ar    1  ZINC000054627026    0.1400
      5 C5         -4.3657    2.9306   52.4852 C.ar    1  ZINC000054627026   -0.0900
      6 C6         -5.7174    2.9489   52.7556 C.ar    1  ZINC000054627026   -0.0900
      7 C7         -6.4843    1.8149   52.5309 C.ar    1  ZINC000054627026    0.0500
      8 N8         -7.8263    1.5190   52.6961 N.pl3   1  ZINC000054627026   -0.5900
      9 C9         -8.0052    0.2183   52.3018 C.2     1  ZINC000054627026    0.3700
     10 C10        -9.2874   -0.5014   52.3148 C.2     1  ZINC000054627026    0.0200
     11 C11       -10.2983   -0.3196   53.2110 C.2     1  ZINC000054627026   -0.1200
     12 C12       -11.3253   -1.2099   52.8487 C.2     1  ZINC000054627026   -0.2200
     13 C13       -10.8987   -1.8856   51.7616 C.2     1  ZINC000054627026   -0.0100
     14 O14        -9.6707   -1.4519   51.4392 O.3     1  ZINC000054627026   -0.1700
     15 N15        -6.8578   -0.2877   51.9100 N.2     1  ZINC000054627026   -0.4600
     16 C16        -5.8837    0.6468   52.0277 C.ar    1  ZINC000054627026    0.0700
     17 C17        -4.5127    0.6413   51.7521 C.ar    1  ZINC000054627026   -0.0900
     18 C18        -0.5049    1.8237   50.1567 C.2     1  ZINC000054627026   -0.1000
     19 C19         0.0680    1.5975   48.9372 C.2     1  ZINC000054627026    0.1000
     20 N20         1.4049    1.6821   49.1123 N.pl3   1  ZINC000054627026   -0.3100
     21 C21         2.3893    1.5190   48.1272 C.ar    1  ZINC000054627026    0.1300
     22 C22         2.0247    1.2088   46.8240 C.ar    1  ZINC000054627026   -0.1200
     23 C23         2.9966    1.0492   45.8558 C.ar    1  ZINC000054627026   -0.1000
     24 C24         4.3318    1.1977   46.1833 C.ar    1  ZINC000054627026   -0.1100
     25 C25         4.6981    1.5062   47.4806 C.ar    1  ZINC000054627026   -0.1000
     26 C26         3.7303    1.6731   48.4517 C.ar    1  ZINC000054627026   -0.1000
     27 N27         1.6181    1.9651   50.4689 N.2     1  ZINC000054627026   -0.0500
     28 N28         0.4730    2.0467   51.0517 N.2     1  ZINC000054627026   -0.2000
     29 H29        -1.7502    1.7300   52.4453 H       1  ZINC000054627026    0.4200
     30 H30        -3.7710    3.8147   52.6614 H       1  ZINC000054627026    0.1500
     31 H31        -6.1791    3.8455   53.1424 H       1  ZINC000054627026    0.1300
     32 H32        -8.5116    2.1194   53.0291 H       1  ZINC000054627026    0.4300
     33 H33       -10.3086    0.3735   54.0393 H       1  ZINC000054627026    0.1600
     34 H34       -12.2758   -1.3303   53.3471 H       1  ZINC000054627026    0.1600
     35 H35       -11.4552   -2.6473   51.2357 H       1  ZINC000054627026    0.2100
     36 H36        -4.0418   -0.2483   51.3604 H       1  ZINC000054627026    0.1400
     37 H37        -0.4483    1.3905   48.0115 H       1  ZINC000054627026    0.2100
     38 H38         0.9820    1.0920   46.5678 H       1  ZINC000054627026    0.1400
     39 H39         2.7135    0.8078   44.8419 H       1  ZINC000054627026    0.1400
     40 H40         5.0901    1.0721   45.4246 H       1  ZINC000054627026    0.1400
     41 H41         5.7417    1.6213   47.7334 H       1  ZINC000054627026    0.1400
     42 H42         4.0171    1.9141   49.4648 H       1  ZINC000054627026    0.1400
@<TRIPOS>BOND
     1     1     2    2
     2     2     3   am
     3     2    18    1
     4     3     4    1
     5     3    29    1
     6     4    17   ar
     7     4     5   ar
     8     5     6   ar
     9     5    30    1
    10     6     7   ar
    11     6    31    1
    12     7    16   ar
    13     7     8    1
    14     8     9    1
    15     8    32    1
    16     9    10    1
    17     9    15    2
    18    10    14    1
    19    10    11    2
    20    11    12    1
    21    11    33    1
    22    12    13    2
    23    12    34    1
    24    13    14    1
    25    13    35    1
    26    15    16    1
    27    16    17   ar
    28    17    36    1
    29    18    28    1
    30    18    19    2
    31    19    20    1
    32    19    37    1
    33    20    21    1
    34    20    27    1
    35    21    26   ar
    36    21    22   ar
    37    22    23   ar
    38    22    38    1
    39    23    24   ar
    40    23    39    1
    41    24    25   ar
    42    24    40    1
    43    25    26   ar
    44    25    41    1
    45    26    42    1
    46    27    28    2
@<TRIPOS>SUBSTRUCTURE
     1 ZINC000054627026        1 TEMP              0 ****  ****    0 ROOT


##########                                Name:    ZINC000347662449
##########                DOCK_Rotatable_Bonds:                   5
##########                         Heavy_Atoms:                  23
##########                    Molecular_Weight:              327.45
##########                DOCK_Rotatable_Bonds:                   5
##########                       Formal_Charge:                0.03
##########                     HBond_Acceptors:                   5
##########                        HBond_Donors:                   0
##########                         Heavy_Atoms:                  23
##########                          Grid_Score:          -28.941284
##########                     Grid_vdw_energy:          -28.496269
##########                      Grid_es_energy:           -0.445015
##########           Internal_energy_repulsive:            6.188995

@<TRIPOS>MOLECULE
ZINC000347662449
 44 46 1 0 0
SMALL
USER_CHARGES


@<TRIPOS>ATOM
      1 C1        -15.9862   -2.1605   60.5529 C.2     1  ZINC000347662449   -0.1800
      2 C2        -14.8883   -2.8312   60.7998 C.2     1  ZINC000347662449   -0.1700
      3 C3        -13.5505   -2.2555   60.4130 C.3     1  ZINC000347662449    0.1600
      4 N4        -13.2290   -2.6477   59.0386 N.am    1  ZINC000347662449   -0.6200
      5 C5        -14.2274   -2.8741   57.9870 C.3     1  ZINC000347662449    0.1100
      6 C6        -13.4426   -2.8295   56.6571 C.3     1  ZINC000347662449   -0.1100
      7 C7        -12.0216   -3.2308   57.1160 C.3     1  ZINC000347662449   -0.1200
      8 H8        -11.8720   -4.3042   56.9993 H       1  ZINC000347662449    0.1400
      9 S9        -10.7717   -2.3134   56.1821 S.3     1  ZINC000347662449    0.0300
     10 C10       -11.0321   -2.9897   54.5760 C.2     1  ZINC000347662449    0.1900
     11 N11       -11.6720   -4.1037   54.3061 N.2     1  ZINC000347662449   -0.4500
     12 C12       -11.6748   -4.3049   52.9775 C.2     1  ZINC000347662449   -0.0100
     13 C13       -11.0178   -3.2885   52.3929 C.2     1  ZINC000347662449   -0.0400
     14 N14       -10.6083   -2.4421   53.4011 N.pl3   1  ZINC000347662449   -0.4000
     15 C15        -9.8867   -1.2499   53.2482 C.ar    1  ZINC000347662449    0.1100
     16 C16       -10.3994   -0.0584   53.7425 C.ar    1  ZINC000347662449   -0.1100
     17 C17        -9.6861    1.1148   53.5904 C.ar    1  ZINC000347662449   -0.1000
     18 C18        -8.4627    1.1030   52.9465 C.ar    1  ZINC000347662449   -0.0800
     19 C19        -7.6868    2.3845   52.7826 C.3     1  ZINC000347662449   -0.1200
     20 C20        -7.9494   -0.0825   52.4529 C.ar    1  ZINC000347662449   -0.0700
     21 C21        -6.6154   -0.0911   51.7517 C.3     1  ZINC000347662449   -0.1200
     22 C22        -8.6551   -1.2595   52.6070 C.ar    1  ZINC000347662449   -0.1100
     23 C23       -11.9814   -2.8409   58.5772 C.2     1  ZINC000347662449    0.5300
     24 O24       -10.9708   -2.7265   59.2380 O.2     1  ZINC000347662449   -0.4900
     25 H25       -15.9325   -1.1949   60.0720 H       1  ZINC000347662449    0.1000
     26 H26       -16.9452   -2.5751   60.8261 H       1  ZINC000347662449    0.1000
     27 H27       -14.9421   -3.7968   61.2806 H       1  ZINC000347662449    0.1100
     28 H28       -13.5894   -1.1683   60.4809 H       1  ZINC000347662449    0.0900
     29 H29       -12.7830   -2.6343   61.0879 H       1  ZINC000347662449    0.0900
     30 H30       -14.6963   -3.8497   58.1158 H       1  ZINC000347662449    0.0800
     31 H31       -14.9812   -2.0870   58.0068 H       1  ZINC000347662449    0.0900
     32 H32       -13.8410   -3.5519   55.9447 H       1  ZINC000347662449    0.1100
     33 H33       -13.4470   -1.8245   56.2351 H       1  ZINC000347662449    0.0900
     34 H34       -12.1280   -5.1413   52.4661 H       1  ZINC000347662449    0.1800
     35 H35       -10.8464   -3.1580   51.3347 H       1  ZINC000347662449    0.1800
     36 H36       -11.3552   -0.0485   54.2453 H       1  ZINC000347662449    0.1300
     37 H37       -10.0847    2.0422   53.9745 H       1  ZINC000347662449    0.1300
     38 H38        -7.0290    2.5232   53.6406 H       1  ZINC000347662449    0.0800
     39 H39        -7.0902    2.3340   51.8717 H       1  ZINC000347662449    0.0700
     40 H40        -8.3801    3.2231   52.7169 H       1  ZINC000347662449    0.0700
     41 H41        -5.8230   -0.2629   52.4801 H       1  ZINC000347662449    0.0800
     42 H42        -6.6021   -0.8859   51.0059 H       1  ZINC000347662449    0.0700
     43 H43        -6.4564    0.8695   51.2616 H       1  ZINC000347662449    0.0800
     44 H44        -8.2537   -2.1850   52.2217 H       1  ZINC000347662449    0.1300
@<TRIPOS>BOND
     1     1     2    2
     2     1    25    1
     3     1    26    1
     4     2     3    1
     5     2    27    1
     6     3     4    1
     7     3    28    1
     8     3    29    1
     9     4    23   am
    10     4     5    1
    11     5     6    1
    12     5    30    1
    13     5    31    1
    14     6     7    1
    15     6    32    1
    16     6    33    1
    17     7     8    1
    18     7     9    1
    19     7    23    1
    20     9    10    1
    21    10    14    1
    22    10    11    2
    23    11    12    1
    24    12    13    2
    25    12    34    1
    26    13    14    1
    27    13    35    1
    28    14    15    1
    29    15    22   ar
    30    15    16   ar
    31    16    17   ar
    32    16    36    1
    33    17    18   ar
    34    17    37    1
    35    18    19    1
    36    18    20   ar
    37    19    38    1
    38    19    39    1
    39    19    40    1
    40    20    21    1
    41    20    22   ar
    42    21    41    1
    43    21    42    1
    44    21    43    1
    45    22    44    1
    46    23    24    2
@<TRIPOS>SUBSTRUCTURE
     1 ZINC000347662449        1 TEMP              0 ****  ****    0 ROOT


##########                                Name:    ZINC000477589488
##########                DOCK_Rotatable_Bonds:                   6
##########                         Heavy_Atoms:                  32
##########                    Molecular_Weight:             423.517
##########                DOCK_Rotatable_Bonds:                   6
##########                       Formal_Charge:        -8.19564e-07
##########                     HBond_Acceptors:                   6
##########                        HBond_Donors:                   1
##########                         Heavy_Atoms:                  32
##########                          Grid_Score:          -28.936525
##########                     Grid_vdw_energy:          -28.588486
##########                      Grid_es_energy:           -0.348040
##########           Internal_energy_repulsive:           20.152321

@<TRIPOS>MOLECULE
ZINC000477589488
 57 61 1 0 0
SMALL
USER_CHARGES


@<TRIPOS>ATOM
      1 O1        -13.0714    0.8998   59.1187 O.2     1  ZINC000477589488   -0.5800
      2 C2        -12.2338    0.0289   59.2540 C.2     1  ZINC000477589488    0.7100
      3 N3        -12.4301   -1.1862   58.7050 N.am    1  ZINC000477589488   -0.7400
      4 C4        -13.6556   -1.4596   57.9503 C.3     1  ZINC000477589488    0.2500
      5 H5        -13.8984   -0.5987   57.3274 H       1  ZINC000477589488    0.1100
      6 C6        -14.7883   -1.7213   58.9092 C.ar    1  ZINC000477589488   -0.0900
      7 C7        -16.0952   -1.5185   58.5068 C.ar    1  ZINC000477589488   -0.1000
      8 C8        -17.1343   -1.7585   59.3864 C.ar    1  ZINC000477589488   -0.1200
      9 C9        -16.8665   -2.2017   60.6681 C.ar    1  ZINC000477589488   -0.1200
     10 C10       -15.5597   -2.4054   61.0701 C.ar    1  ZINC000477589488   -0.1200
     11 C11       -14.5208   -2.1695   60.1892 C.ar    1  ZINC000477589488   -0.1000
     12 C12       -13.4479   -2.6694   57.0761 C.ar    1  ZINC000477589488   -0.0700
     13 C13       -12.9658   -2.5190   55.7650 C.ar    1  ZINC000477589488   -0.0400
     14 C14       -12.6667   -1.2508   55.2383 C.ar    1  ZINC000477589488   -0.1100
     15 C15       -12.2011   -1.1436   53.9641 C.ar    1  ZINC000477589488   -0.1100
     16 C16       -12.0159   -2.2742   53.1701 C.ar    1  ZINC000477589488   -0.1100
     17 C17       -12.2953   -3.5181   53.6461 C.ar    1  ZINC000477589488   -0.1100
     18 C18       -12.7770   -3.6688   54.9578 C.ar    1  ZINC000477589488   -0.0500
     19 C19       -13.0759   -4.9367   55.4843 C.ar    1  ZINC000477589488   -0.1000
     20 C20       -13.5404   -5.0440   56.7594 C.ar    1  ZINC000477589488   -0.1100
     21 C21       -13.7212   -3.9142   57.5545 C.ar    1  ZINC000477589488   -0.1100
     22 N22       -11.1063    0.2805   59.9483 N.am    1  ZINC000477589488   -0.6300
     23 C23       -10.8748    1.5975   60.5606 C.3     1  ZINC000477589488    0.1300
     24 C24       -10.5021    1.3913   62.0326 C.3     1  ZINC000477589488    0.0500
     25 N25        -9.3718    0.4574   62.1220 N.3     1  ZINC000477589488   -0.4700
     26 C26        -8.8995    0.3701   63.4270 C.ar    1  ZINC000477589488    0.2500
     27 C27        -7.8374    1.1721   63.8428 C.ar    1  ZINC000477589488   -0.1300
     28 C28        -7.4042    1.0468   65.1535 C.ar    1  ZINC000477589488   -0.0900
     29 C29        -8.0533    0.1321   65.9705 C.ar    1  ZINC000477589488    0.0200
     30 N30        -9.0504   -0.5866   65.4938 N.ar    1  ZINC000477589488   -0.2200
     31 N31        -9.4604   -0.4720   64.2829 N.ar    1  ZINC000477589488   -0.2800
     32 C32        -9.7336   -0.8685   61.6033 C.3     1  ZINC000477589488    0.0400
     33 C33       -10.0776   -0.7567   60.1188 C.3     1  ZINC000477589488    0.1200
     34 H34       -11.7600   -1.8796   58.8094 H       1  ZINC000477589488    0.3900
     35 H35       -16.3045   -1.1722   57.5056 H       1  ZINC000477589488    0.1100
     36 H36       -18.1553   -1.5994   59.0723 H       1  ZINC000477589488    0.1200
     37 H37       -17.6783   -2.3885   61.3555 H       1  ZINC000477589488    0.1200
     38 H38       -15.3504   -2.7513   62.0716 H       1  ZINC000477589488    0.1200
     39 H39       -13.4998   -2.3286   60.5032 H       1  ZINC000477589488    0.1200
     40 H40       -12.8058   -0.3659   55.8416 H       1  ZINC000477589488    0.1300
     41 H41       -11.9720   -0.1679   53.5618 H       1  ZINC000477589488    0.1300
     42 H42       -11.6455   -2.1612   52.1620 H       1  ZINC000477589488    0.1300
     43 H43       -12.1475   -4.3850   53.0191 H       1  ZINC000477589488    0.1300
     44 H44       -12.9382   -5.8214   54.8804 H       1  ZINC000477589488    0.1300
     45 H45       -13.7697   -6.0198   57.1614 H       1  ZINC000477589488    0.1300
     46 H46       -14.0907   -4.0272   58.5631 H       1  ZINC000477589488    0.1200
     47 H47       -10.0592    2.1033   60.0437 H       1  ZINC000477589488    0.0800
     48 H48       -11.7825    2.1973   60.4932 H       1  ZINC000477589488    0.1100
     49 H49       -10.2199    2.3473   62.4738 H       1  ZINC000477589488    0.1000
     50 H50       -11.3568    0.9804   62.5700 H       1  ZINC000477589488    0.0600
     51 H51        -7.3668    1.8686   63.1648 H       1  ZINC000477589488    0.1500
     52 H52        -6.5854    1.6433   65.5277 H       1  ZINC000477589488    0.1500
     53 H53        -7.7414    0.0086   66.9970 H       1  ZINC000477589488    0.1700
     54 H54        -8.8940   -1.5514   61.7331 H       1  ZINC000477589488    0.1000
     55 H55       -10.5990   -1.2479   62.1467 H       1  ZINC000477589488    0.0600
     56 H56       -10.4560   -1.7130   59.7578 H       1  ZINC000477589488    0.0800
     57 H57        -9.1868   -0.4765   59.5567 H       1  ZINC000477589488    0.0900
@<TRIPOS>BOND
     1     1     2    2
     2     2     3   am
     3     2    22   am
     4     3     4    1
     5     3    34    1
     6     4     5    1
     7     4     6    1
     8     4    12    1
     9     6    11   ar
    10     6     7   ar
    11     7     8   ar
    12     7    35    1
    13     8     9   ar
    14     8    36    1
    15     9    10   ar
    16     9    37    1
    17    10    11   ar
    18    10    38    1
    19    11    39    1
    20    12    21   ar
    21    12    13   ar
    22    13    18   ar
    23    13    14   ar
    24    14    15   ar
    25    14    40    1
    26    15    16   ar
    27    15    41    1
    28    16    17   ar
    29    16    42    1
    30    17    18   ar
    31    17    43    1
    32    18    19   ar
    33    19    20   ar
    34    19    44    1
    35    20    21   ar
    36    20    45    1
    37    21    46    1
    38    22    33    1
    39    22    23    1
    40    23    24    1
    41    23    47    1
    42    23    48    1
    43    24    25    1
    44    24    49    1
    45    24    50    1
    46    25    26    1
    47    25    32    1
    48    26    31   ar
    49    26    27   ar
    50    27    28   ar
    51    27    51    1
    52    28    29   ar
    53    28    52    1
    54    29    30   ar
    55    29    53    1
    56    30    31   ar
    57    32    33    1
    58    32    54    1
    59    32    55    1
    60    33    56    1
    61    33    57    1
@<TRIPOS>SUBSTRUCTURE
     1 ZINC000477589488        1 TEMP              0 ****  ****    0 ROOT


##########                                Name:    ZINC000956479608
##########                DOCK_Rotatable_Bonds:                   5
##########                         Heavy_Atoms:                  25
##########                    Molecular_Weight:             345.442
##########                DOCK_Rotatable_Bonds:                   5
##########                       Formal_Charge:          -0.0100001
##########                     HBond_Acceptors:                   6
##########                        HBond_Donors:                   1
##########                         Heavy_Atoms:                  25
##########                          Grid_Score:          -28.890257
##########                     Grid_vdw_energy:          -28.474434
##########                      Grid_es_energy:           -0.415823
##########           Internal_energy_repulsive:           29.899076

@<TRIPOS>MOLECULE
ZINC000956479608
 52 55 1 0 0
SMALL
USER_CHARGES


@<TRIPOS>ATOM
      1 C1          1.6280    3.0761   56.8699 C.3     1  ZINC000956479608   -0.0900
      2 C2          0.2493    2.5054   57.0816 C.2     1  ZINC000956479608   -0.1100
      3 C3         -0.8913    2.7700   56.3738 C.2     1  ZINC000956479608   -0.1000
      4 C4         -1.0302    3.6868   55.2266 C.2     1  ZINC000956479608    0.6100
      5 O5         -1.7878    4.6354   55.2946 O.2     1  ZINC000956479608   -0.5000
      6 N6         -0.3173    3.4730   54.1029 N.am    1  ZINC000956479608   -0.7100
      7 C7         -0.4565    4.3825   52.9629 C.3     1  ZINC000956479608    0.1800
      8 C8         -0.1100    5.8067   53.4017 C.3     1  ZINC000956479608   -0.1700
      9 C9          0.4943    3.9481   51.8451 C.3     1  ZINC000956479608   -0.1500
     10 C10         0.1669    2.5098   51.4318 C.3     1  ZINC000956479608    0.1100
     11 N11        -1.2568    2.4321   51.0773 N.am    1  ZINC000956479608   -0.6100
     12 C12        -1.6416    1.9322   49.8862 C.2     1  ZINC000956479608    0.5500
     13 O13        -2.8199    1.8748   49.6048 O.2     1  ZINC000956479608   -0.5400
     14 C14        -0.6077    1.4448   48.9041 C.3     1  ZINC000956479608   -0.1900
     15 H15         0.1786    0.8161   49.3219 H       1  ZINC000956479608    0.1200
     16 C16        -1.0718    1.1424   47.4853 C.3     1  ZINC000956479608   -0.1100
     17 H17        -2.1282    1.3177   47.2821 H       1  ZINC000956479608    0.1000
     18 C18        -0.4649   -0.0256   46.7235 C.3     1  ZINC000956479608   -0.0900
     19 C19         1.0614    0.0250   46.7924 C.3     1  ZINC000956479608   -0.1200
     20 C20         1.5284    1.3944   46.2856 C.3     1  ZINC000956479608   -0.1200
     21 C21         1.2318    2.4391   47.3616 C.3     1  ZINC000956479608   -0.0900
     22 C22        -0.2281    2.3829   47.7480 C.3     1  ZINC000956479608   -0.1100
     23 H23        -0.7610    3.3325   47.7005 H       1  ZINC000956479608    0.1100
     24 C24        -2.2531    2.9091   52.0460 C.3     1  ZINC000956479608    0.1000
     25 C25        -1.8987    4.3430   52.4523 C.3     1  ZINC000956479608   -0.1400
     26 O26        -1.8612    2.0241   56.9357 O.3     1  ZINC000956479608    0.1200
     27 N27        -1.4378    1.3726   57.8617 N.2     1  ZINC000956479608   -0.3400
     28 C28        -0.1656    1.5679   58.0534 C.2     1  ZINC000956479608   -0.0100
     29 H29         2.1788    2.4457   56.1718 H       1  ZINC000956479608    0.0800
     30 H30         1.5455    4.0836   56.4623 H       1  ZINC000956479608    0.0900
     31 H31         2.1567    3.1116   57.8223 H       1  ZINC000956479608    0.0800
     32 H32         0.2880    2.7170   54.0490 H       1  ZINC000956479608    0.4100
     33 H33         0.9170    5.8349   53.7659 H       1  ZINC000956479608    0.0800
     34 H34        -0.2135    6.4835   52.5536 H       1  ZINC000956479608    0.0700
     35 H35        -0.7865    6.1162   54.1983 H       1  ZINC000956479608    0.0600
     36 H36         0.3734    4.6096   50.9872 H       1  ZINC000956479608    0.0800
     37 H37         1.5229    3.9989   52.2021 H       1  ZINC000956479608    0.1000
     38 H38         0.7737    2.2299   50.5708 H       1  ZINC000956479608    0.0900
     39 H39         0.3740    1.8349   52.2623 H       1  ZINC000956479608    0.0600
     40 H40        -0.8139   -0.9607   47.1613 H       1  ZINC000956479608    0.0700
     41 H41        -0.7797    0.0225   45.6811 H       1  ZINC000956479608    0.0700
     42 H42         1.3860   -0.1137   47.8236 H       1  ZINC000956479608    0.0600
     43 H43         1.4823   -0.7605   46.1648 H       1  ZINC000956479608    0.0700
     44 H44         2.6001    1.3657   46.0887 H       1  ZINC000956479608    0.0700
     45 H45         0.9924    1.6484   45.3711 H       1  ZINC000956479608    0.0700
     46 H46         1.8431    2.2357   48.2408 H       1  ZINC000956479608    0.0700
     47 H47         1.4725    3.4307   46.9784 H       1  ZINC000956479608    0.0700
     48 H48        -3.2431    2.8927   51.5901 H       1  ZINC000956479608    0.0900
     49 H49        -2.2434    2.2668   52.9266 H       1  ZINC000956479608    0.0700
     50 H50        -2.5733    4.6748   53.2416 H       1  ZINC000956479608    0.0900
     51 H51        -1.9970    5.0007   51.5886 H       1  ZINC000956479608    0.0900
     52 H52         0.4507    1.1091   58.8123 H       1  ZINC000956479608    0.2000
@<TRIPOS>BOND
     1     1     2    1
     2     1    29    1
     3     1    30    1
     4     1    31    1
     5     2    28    1
     6     2     3    2
     7     3     4    1
     8     3    26    1
     9     4     5    2
    10     4     6   am
    11     6     7    1
    12     6    32    1
    13     7    25    1
    14     7     8    1
    15     7     9    1
    16     8    33    1
    17     8    34    1
    18     8    35    1
    19     9    10    1
    20     9    36    1
    21     9    37    1
    22    10    11    1
    23    10    38    1
    24    10    39    1
    25    11    12   am
    26    11    24    1
    27    12    13    2
    28    12    14    1
    29    14    15    1
    30    14    22    1
    31    14    16    1
    32    16    17    1
    33    16    22    1
    34    16    18    1
    35    18    19    1
    36    18    40    1
    37    18    41    1
    38    19    20    1
    39    19    42    1
    40    19    43    1
    41    20    21    1
    42    20    44    1
    43    20    45    1
    44    21    22    1
    45    21    46    1
    46    21    47    1
    47    22    23    1
    48    24    25    1
    49    24    48    1
    50    24    49    1
    51    25    50    1
    52    25    51    1
    53    26    27    1
    54    27    28    2
    55    28    52    1
@<TRIPOS>SUBSTRUCTURE
     1 ZINC000956479608        1 TEMP              0 ****  ****    0 ROOT


##########                                Name:    ZINC000957079511
##########                DOCK_Rotatable_Bonds:                   8
##########                         Heavy_Atoms:                  25
##########                    Molecular_Weight:             362.453
##########                DOCK_Rotatable_Bonds:                   8
##########                       Formal_Charge:        -4.32134e-07
##########                     HBond_Acceptors:                   8
##########                        HBond_Donors:                   2
##########                         Heavy_Atoms:                  25
##########                          Grid_Score:          -28.883776
##########                     Grid_vdw_energy:          -25.581799
##########                      Grid_es_energy:           -3.301977
##########           Internal_energy_repulsive:           14.677877

@<TRIPOS>MOLECULE
ZINC000957079511
 47 49 1 0 0
SMALL
USER_CHARGES


@<TRIPOS>ATOM
      1 C1         -4.1318    6.3229   53.9010 C.3     1  ZINC000957079511   -0.0700
      2 C2         -4.9494    5.0689   53.7275 C.2     1  ZINC000957079511    0.0300
      3 C3         -4.4801    3.8072   53.7622 C.2     1  ZINC000957079511   -0.0200
      4 C4         -3.0495    3.3864   53.9799 C.3     1  ZINC000957079511   -0.0600
      5 C5         -2.3111    3.4185   52.6666 C.2     1  ZINC000957079511    0.5100
      6 O6         -2.6863    4.1532   51.7776 O.2     1  ZINC000957079511   -0.5200
      7 N7         -1.2335    2.6307   52.4800 N.am    1  ZINC000957079511   -0.7200
      8 C8         -0.5167    2.6606   51.2027 C.3     1  ZINC000957079511    0.1400
      9 H9         -0.2651    3.6834   50.9221 H       1  ZINC000957079511    0.1100
     10 C10        -1.3383    1.9652   50.0885 C.3     1  ZINC000957079511    0.0800
     11 N11        -0.3366    1.5231   49.1013 N.am    1  ZINC000957079511   -0.6200
     12 C12        -0.5704    1.2942   47.7938 C.2     1  ZINC000957079511    0.5400
     13 O13        -1.6848    1.4490   47.3408 O.2     1  ZINC000957079511   -0.5100
     14 C14         0.5528    0.8458   46.8947 C.3     1  ZINC000957079511    0.0500
     15 O15         1.5687    1.8505   46.8643 O.3     1  ZINC000957079511   -0.2800
     16 C16         1.3110    2.9685   46.1300 C.2     1  ZINC000957079511    0.1200
     17 C17         0.2459    3.0744   45.3300 C.2     1  ZINC000957079511   -0.3300
     18 S18         0.2476    4.6511   44.5506 S.3     1  ZINC000957079511    0.1300
     19 C19         1.7360    5.0928   45.3768 C.2     1  ZINC000957079511   -0.1800
     20 C20         2.1305    4.0867   46.1595 C.2     1  ZINC000957079511   -0.1400
     21 C21         0.9596    1.3741   49.7789 C.3     1  ZINC000957079511    0.1100
     22 C22         0.7530    1.7704   51.2565 C.3     1  ZINC000957079511   -0.1100
     23 H23         0.5785    0.8876   51.8718 H       1  ZINC000957079511    0.0900
     24 C24         1.9540    2.5622   51.7776 C.3     1  ZINC000957079511   -0.1400
     25 N25        -5.5524    2.9801   53.5622 N.pl3   1  ZINC000957079511   -0.5600
     26 C26        -6.6404    3.7660   53.4121 C.2     1  ZINC000957079511    0.2000
     27 N27        -6.2730    5.0138   53.5171 N.2     1  ZINC000957079511   -0.4900
     28 H28        -4.0948    6.5893   54.9574 H       1  ZINC000957079511    0.0700
     29 H29        -3.1200    6.1507   53.5342 H       1  ZINC000957079511    0.0600
     30 H30        -4.5893    7.1359   53.3372 H       1  ZINC000957079511    0.0700
     31 H31        -2.5724    4.0704   54.6818 H       1  ZINC000957079511    0.1000
     32 H32        -3.0260    2.3750   54.3854 H       1  ZINC000957079511    0.1200
     33 H33        -0.9326    2.0440   53.1914 H       1  ZINC000957079511    0.4000
     34 H34        -1.8764    1.1079   50.4930 H       1  ZINC000957079511    0.0800
     35 H35        -2.0337    2.6705   49.6337 H       1  ZINC000957079511    0.0800
     36 H36         0.9736   -0.0847   47.2756 H       1  ZINC000957079511    0.0900
     37 H37         0.1698    0.6858   45.8869 H       1  ZINC000957079511    0.0900
     38 H38        -0.5016    2.3087   45.1838 H       1  ZINC000957079511    0.1700
     39 H39         2.2502    6.0365   45.2701 H       1  ZINC000957079511    0.1800
     40 H40         3.0241    4.1366   46.7640 H       1  ZINC000957079511    0.1500
     41 H41         1.2939    0.3386   49.7158 H       1  ZINC000957079511    0.0800
     42 H42         1.6963    2.0325   49.3187 H       1  ZINC000957079511    0.0800
     43 H43         2.0927    3.4550   51.1678 H       1  ZINC000957079511    0.0600
     44 H44         1.7757    2.8533   52.8128 H       1  ZINC000957079511    0.0600
     45 H45         2.8489    1.9424   51.7234 H       1  ZINC000957079511    0.0700
     46 H46        -5.5342    2.0107   53.5336 H       1  ZINC000957079511    0.4200
     47 H47        -7.6483    3.4191   53.2381 H       1  ZINC000957079511    0.2100
@<TRIPOS>BOND
     1     1     2    1
     2     1    28    1
     3     1    29    1
     4     1    30    1
     5     2    27    1
     6     2     3    2
     7     3     4    1
     8     3    25    1
     9     4     5    1
    10     4    31    1
    11     4    32    1
    12     5     6    2
    13     5     7   am
    14     7     8    1
    15     7    33    1
    16     8     9    1
    17     8    22    1
    18     8    10    1
    19    10    11    1
    20    10    34    1
    21    10    35    1
    22    11    12   am
    23    11    21    1
    24    12    13    2
    25    12    14    1
    26    14    15    1
    27    14    36    1
    28    14    37    1
    29    15    16    1
    30    16    20    1
    31    16    17    2
    32    17    18    1
    33    17    38    1
    34    18    19    1
    35    19    20    2
    36    19    39    1
    37    20    40    1
    38    21    22    1
    39    21    41    1
    40    21    42    1
    41    22    23    1
    42    22    24    1
    43    24    43    1
    44    24    44    1
    45    24    45    1
    46    25    26    1
    47    25    46    1
    48    26    27    2
    49    26    47    1
@<TRIPOS>SUBSTRUCTURE
     1 ZINC000957079511        1 TEMP              0 ****  ****    0 ROOT


##########                                Name:    ZINC000132775118
##########                DOCK_Rotatable_Bonds:                   5
##########                         Heavy_Atoms:                  27
##########                    Molecular_Weight:             376.499
##########                DOCK_Rotatable_Bonds:                   5
##########                       Formal_Charge:        -4.76837e-07
##########                     HBond_Acceptors:                   7
##########                        HBond_Donors:                   1
##########                         Heavy_Atoms:                  27
##########                          Grid_Score:          -28.861233
##########                     Grid_vdw_energy:          -28.277739
##########                      Grid_es_energy:           -0.583495
##########           Internal_energy_repulsive:           21.657131

@<TRIPOS>MOLECULE
ZINC000132775118
 59 62 1 0 0
SMALL
USER_CHARGES


@<TRIPOS>ATOM
      1 O1         -9.9956   -2.5828   58.3600 O.2     1  ZINC000132775118   -0.5200
      2 C2        -10.8238   -1.7385   58.6285 C.2     1  ZINC000132775118    0.5200
      3 C3        -12.2017   -1.8152   58.0230 C.3     1  ZINC000132775118    0.0300
      4 N4        -12.2754   -2.9702   57.1183 N.3     1  ZINC000132775118   -0.5100
      5 C5        -13.5106   -3.7359   57.3411 C.3     1  ZINC000132775118    0.0300
      6 C6        -13.6856   -4.7802   56.2765 C.2     1  ZINC000132775118    0.5300
      7 O7        -14.4858   -5.6712   56.4685 O.2     1  ZINC000132775118   -0.5500
      8 N8        -13.0012   -4.7753   55.1246 N.am    1  ZINC000132775118   -0.7200
      9 C9        -11.9740   -3.7821   54.8426 C.3     1  ZINC000132775118    0.1500
     10 H10       -10.9974   -4.2074   55.0740 H       1  ZINC000132775118    0.0800
     11 C11       -11.9933   -3.3537   53.3771 C.3     1  ZINC000132775118   -0.1300
     12 C12       -10.8523   -2.3600   53.1363 C.3     1  ZINC000132775118   -0.1200
     13 C13       -11.0223   -1.1400   54.0419 C.3     1  ZINC000132775118   -0.1200
     14 C14       -11.0331   -1.5753   55.5107 C.3     1  ZINC000132775118   -0.1200
     15 C15       -12.1968   -2.5456   55.7160 C.3     1  ZINC000132775118    0.0700
     16 H16       -13.1304   -2.0540   55.4427 H       1  ZINC000132775118    0.0600
     17 N17       -10.5136   -0.7349   59.4729 N.am    1  ZINC000132775118   -0.6200
     18 C18       -11.5100    0.2885   59.8173 C.3     1  ZINC000132775118    0.1100
     19 C19       -11.6240    0.3721   61.3427 C.3     1  ZINC000132775118   -0.1200
     20 C20       -10.2372    0.6186   61.9410 C.3     1  ZINC000132775118   -0.1000
     21 C21       -10.3503    0.7353   63.4393 C.2     1  ZINC000132775118    0.5300
     22 O22       -11.2597    0.1852   64.0234 O.2     1  ZINC000132775118   -0.5300
     23 N23        -9.4409    1.4511   64.1300 N.am    1  ZINC000132775118   -0.6200
     24 C24        -8.2974    2.1709   63.5503 C.3     1  ZINC000132775118    0.1000
     25 C25        -7.5244    2.8193   64.7181 C.3     1  ZINC000132775118   -0.1300
     26 C26        -7.9520    1.9603   65.9373 C.3     1  ZINC000132775118   -0.1300
     27 C27        -9.4315    1.6473   65.5911 C.3     1  ZINC000132775118    0.1000
     28 C28        -9.3129   -0.5493   61.5890 C.3     1  ZINC000132775118   -0.1200
     29 C29        -9.1747   -0.6468   60.0711 C.3     1  ZINC000132775118    0.1200
     30 H30       -12.9412   -1.9267   58.8158 H       1  ZINC000132775118    0.0700
     31 H31       -12.4039   -0.9018   57.4633 H       1  ZINC000132775118    0.1200
     32 H32       -13.4615   -4.2213   58.3158 H       1  ZINC000132775118    0.1300
     33 H33       -14.3628   -3.0566   57.3215 H       1  ZINC000132775118    0.0700
     34 H34       -13.1954   -5.4535   54.4588 H       1  ZINC000132775118    0.4000
     35 H35       -11.8574   -4.2272   52.7394 H       1  ZINC000132775118    0.0800
     36 H36       -12.9467   -2.8773   53.1485 H       1  ZINC000132775118    0.0700
     37 H37        -9.8998   -2.8428   53.3550 H       1  ZINC000132775118    0.0700
     38 H38       -10.8638   -2.0414   52.0940 H       1  ZINC000132775118    0.0700
     39 H39       -10.1966   -0.4481   53.8756 H       1  ZINC000132775118    0.0700
     40 H40       -11.9627   -0.6420   53.8052 H       1  ZINC000132775118    0.0600
     41 H41       -10.0897   -2.0643   55.7534 H       1  ZINC000132775118    0.0800
     42 H42       -11.1689   -0.7024   56.1492 H       1  ZINC000132775118    0.0700
     43 H43       -11.1945    1.2536   59.4210 H       1  ZINC000132775118    0.0800
     44 H44       -12.4763    0.0151   59.3932 H       1  ZINC000132775118    0.0900
     45 H45       -12.2881    1.1929   61.6134 H       1  ZINC000132775118    0.0800
     46 H46       -12.0258   -0.5644   61.7294 H       1  ZINC000132775118    0.0800
     47 H47        -9.8254    1.5425   61.5349 H       1  ZINC000132775118    0.0900
     48 H48        -7.6502    1.4725   63.0198 H       1  ZINC000132775118    0.0700
     49 H49        -8.6527    2.9424   62.8673 H       1  ZINC000132775118    0.0700
     50 H50        -6.4490    2.7489   64.5549 H       1  ZINC000132775118    0.0800
     51 H51        -7.8281    3.8575   64.8523 H       1  ZINC000132775118    0.0800
     52 H52        -7.3601    1.0471   65.9987 H       1  ZINC000132775118    0.0800
     53 H53        -7.8818    2.5325   66.8624 H       1  ZINC000132775118    0.0900
     54 H54       -10.0717    2.4838   65.8710 H       1  ZINC000132775118    0.0700
     55 H55        -9.7543    0.7362   66.0948 H       1  ZINC000132775118    0.0800
     56 H56        -8.3321   -0.3843   62.0351 H       1  ZINC000132775118    0.0800
     57 H57        -9.7364   -1.4771   61.9734 H       1  ZINC000132775118    0.0800
     58 H58        -8.5984   -1.5352   59.8130 H       1  ZINC000132775118    0.1000
     59 H59        -8.6694    0.2417   59.6925 H       1  ZINC000132775118    0.0700
@<TRIPOS>BOND
     1     1     2    2
     2     2     3    1
     3     2    17   am
     4     3     4    1
     5     3    30    1
     6     3    31    1
     7     4    15    1
     8     4     5    1
     9     5     6    1
    10     5    32    1
    11     5    33    1
    12     6     7    2
    13     6     8   am
    14     8     9    1
    15     8    34    1
    16     9    10    1
    17     9    15    1
    18     9    11    1
    19    11    12    1
    20    11    35    1
    21    11    36    1
    22    12    13    1
    23    12    37    1
    24    12    38    1
    25    13    14    1
    26    13    39    1
    27    13    40    1
    28    14    15    1
    29    14    41    1
    30    14    42    1
    31    15    16    1
    32    17    29    1
    33    17    18    1
    34    18    19    1
    35    18    43    1
    36    18    44    1
    37    19    20    1
    38    19    45    1
    39    19    46    1
    40    20    21    1
    41    20    28    1
    42    20    47    1
    43    21    22    2
    44    21    23   am
    45    23    27    1
    46    23    24    1
    47    24    25    1
    48    24    48    1
    49    24    49    1
    50    25    26    1
    51    25    50    1
    52    25    51    1
    53    26    27    1
    54    26    52    1
    55    26    53    1
    56    27    54    1
    57    27    55    1
    58    28    29    1
    59    28    56    1
    60    28    57    1
    61    29    58    1
    62    29    59    1
@<TRIPOS>SUBSTRUCTURE
     1 ZINC000132775118        1 TEMP              0 ****  ****    0 ROOT


##########                                Name:    ZINC001065334255
##########                DOCK_Rotatable_Bonds:                   7
##########                         Heavy_Atoms:                  23
##########                    Molecular_Weight:             346.448
##########                DOCK_Rotatable_Bonds:                   7
##########                       Formal_Charge:        -5.81145e-07
##########                     HBond_Acceptors:                   8
##########                        HBond_Donors:                   1
##########                         Heavy_Atoms:                  23
##########                          Grid_Score:          -28.860413
##########                     Grid_vdw_energy:          -27.697998
##########                      Grid_es_energy:           -1.162414
##########           Internal_energy_repulsive:           19.058475

@<TRIPOS>MOLECULE
ZINC001065334255
 49 50 1 0 0
SMALL
USER_CHARGES


@<TRIPOS>ATOM
      1 C1         -6.1995    2.8745   53.2285 C.3     1  ZINC001065334255   -0.1500
      2 C2         -4.9149    3.7038   53.1745 C.3     1  ZINC001065334255   -0.0800
      3 C3         -4.6518    4.3266   54.5471 C.3     1  ZINC001065334255   -0.1500
      4 C4         -3.7407    2.8011   52.7906 C.3     1  ZINC001065334255   -0.1400
      5 C5         -2.7619    3.5801   51.9504 C.2     1  ZINC001065334255    0.5100
      6 O6         -2.7401    4.7913   52.0111 O.2     1  ZINC001065334255   -0.5300
      7 N7         -1.9107    2.9311   51.1314 N.am    1  ZINC001065334255   -0.7300
      8 C8         -0.9580    3.6884   50.3159 C.3     1  ZINC001065334255    0.1300
      9 C9         -0.5468    2.8513   49.1030 C.3     1  ZINC001065334255    0.0700
     10 H10         0.1429    3.4237   48.4826 H       1  ZINC001065334255    0.0700
     11 C11         0.1385    1.5648   49.5773 C.3     1  ZINC001065334255    0.0800
     12 N12         0.3541    0.6960   48.4094 N.am    1  ZINC001065334255   -0.6100
     13 C13         1.5638    0.1567   48.1598 C.2     1  ZINC001065334255    0.5400
     14 O14         1.7214   -0.5574   47.1922 O.2     1  ZINC001065334255   -0.5200
     15 C15         2.7205    0.4408   49.0829 C.3     1  ZINC001065334255   -0.1100
     16 H16         2.7357    1.4981   49.3474 H       1  ZINC001065334255    0.1200
     17 C17         4.0448    0.0481   48.4047 C.3     1  ZINC001065334255   -0.1000
     18 C18         5.1581    0.0242   49.4708 C.3     1  ZINC001065334255   -0.5900
     19 S19         4.3055   -0.3680   51.0409 S.o2    1  ZINC001065334255    2.3900
     20 O20         4.6857   -1.6679   51.4712 O.2     1  ZINC001065334255   -0.9300
     21 O21         4.4241    0.7346   51.9294 O.2     1  ZINC001065334255   -0.9300
     22 C22         2.6029   -0.4254   50.3635 C.3     1  ZINC001065334255   -0.5900
     23 C23        -0.7902    0.4330   47.5224 C.3     1  ZINC001065334255    0.0600
     24 C24        -1.4302    1.7747   47.1481 C.3     1  ZINC001065334255    0.0500
     25 O25        -1.7076    2.5137   48.3400 O.3     1  ZINC001065334255   -0.3700
     26 H26        -7.0359    3.5175   53.5021 H       1  ZINC001065334255    0.0600
     27 H27        -6.3869    2.4308   52.2507 H       1  ZINC001065334255    0.0500
     28 H28        -6.0907    2.0842   53.9713 H       1  ZINC001065334255    0.0600
     29 H29        -5.0236    4.4941   52.4318 H       1  ZINC001065334255    0.0800
     30 H30        -4.5431    3.5363   55.2899 H       1  ZINC001065334255    0.0500
     31 H31        -3.7367    4.9174   54.5086 H       1  ZINC001065334255    0.0700
     32 H32        -5.4883    4.9697   54.8206 H       1  ZINC001065334255    0.0500
     33 H33        -3.2435    2.4478   53.6939 H       1  ZINC001065334255    0.0900
     34 H34        -4.1095    1.9478   52.2215 H       1  ZINC001065334255    0.0900
     35 H35        -1.9290    1.9624   51.0820 H       1  ZINC001065334255    0.4000
     36 H36        -1.4243    4.6136   49.9776 H       1  ZINC001065334255    0.0900
     37 H37        -0.0758    3.9227   50.9116 H       1  ZINC001065334255    0.0800
     38 H38         1.0970    1.8071   50.0366 H       1  ZINC001065334255    0.1100
     39 H39        -0.4976    1.0555   50.3013 H       1  ZINC001065334255    0.0900
     40 H40         3.9471   -0.9398   47.9546 H       1  ZINC001065334255    0.1000
     41 H41         4.2917    0.7774   47.6332 H       1  ZINC001065334255    0.1000
     42 H42         5.8913   -0.7472   49.2352 H       1  ZINC001065334255    0.1500
     43 H43         5.6411    0.9992   49.5356 H       1  ZINC001065334255    0.1400
     44 H44         1.8927    0.0133   51.0646 H       1  ZINC001065334255    0.1400
     45 H45         2.3202   -1.4478   50.1136 H       1  ZINC001065334255    0.1500
     46 H46        -0.4468   -0.0742   46.6208 H       1  ZINC001065334255    0.1000
     47 H47        -1.5198   -0.1903   48.0395 H       1  ZINC001065334255    0.0900
     48 H48        -0.7440    2.3427   46.5199 H       1  ZINC001065334255    0.0600
     49 H49        -2.3588    1.5964   46.6059 H       1  ZINC001065334255    0.1100
@<TRIPOS>BOND
     1     1     2    1
     2     1    26    1
     3     1    27    1
     4     1    28    1
     5     2     3    1
     6     2     4    1
     7     2    29    1
     8     3    30    1
     9     3    31    1
    10     3    32    1
    11     4     5    1
    12     4    33    1
    13     4    34    1
    14     5     6    2
    15     5     7   am
    16     7     8    1
    17     7    35    1
    18     8     9    1
    19     8    36    1
    20     8    37    1
    21     9    10    1
    22     9    25    1
    23     9    11    1
    24    11    12    1
    25    11    38    1
    26    11    39    1
    27    12    13   am
    28    12    23    1
    29    13    14    2
    30    13    15    1
    31    15    16    1
    32    15    22    1
    33    15    17    1
    34    17    18    1
    35    17    40    1
    36    17    41    1
    37    18    19    1
    38    18    42    1
    39    18    43    1
    40    19    20    2
    41    19    21    2
    42    19    22    1
    43    22    44    1
    44    22    45    1
    45    23    24    1
    46    23    46    1
    47    23    47    1
    48    24    25    1
    49    24    48    1
    50    24    49    1
@<TRIPOS>SUBSTRUCTURE
     1 ZINC001065334255        1 TEMP              0 ****  ****    0 ROOT


##########                                Name:    ZINC000797321835
##########                DOCK_Rotatable_Bonds:                   4
##########                         Heavy_Atoms:                  22
##########                    Molecular_Weight:             381.253
##########                DOCK_Rotatable_Bonds:                   4
##########                       Formal_Charge:           0.0200001
##########                     HBond_Acceptors:                   7
##########                        HBond_Donors:                   1
##########                         Heavy_Atoms:                  22
##########                          Grid_Score:          -28.830904
##########                     Grid_vdw_energy:          -28.050966
##########                      Grid_es_energy:           -0.779937
##########           Internal_energy_repulsive:           10.161726

@<TRIPOS>MOLECULE
ZINC000797321835
 35 37 1 0 0
SMALL
USER_CHARGES


@<TRIPOS>ATOM
      1 C1        -10.7871   -2.9744   54.6099 C.3     1  ZINC000797321835    0.1000
      2 N2        -11.5708   -2.4644   53.4821 N.am    1  ZINC000797321835   -0.6000
      3 C3        -12.8649   -2.1087   53.5570 C.2     1  ZINC000797321835    0.5200
      4 O4        -13.5454   -2.1703   54.5590 O.2     1  ZINC000797321835   -0.5200
      5 C5        -13.3489   -1.6197   52.2098 C.3     1  ZINC000797321835   -0.1500
      6 C6        -12.0499   -1.3413   51.4184 C.3     1  ZINC000797321835   -0.1200
      7 C7        -11.0422   -2.2706   52.1267 C.3     1  ZINC000797321835    0.1200
      8 H8        -10.9849   -3.2287   51.6102 H       1  ZINC000797321835    0.1100
      9 C9         -9.6820   -1.6236   52.1764 C.2     1  ZINC000797321835    0.4900
     10 O10        -8.6833   -2.3115   52.1862 O.2     1  ZINC000797321835   -0.4400
     11 N11        -9.5756   -0.2805   52.2101 N.am    1  ZINC000797321835   -0.6500
     12 C12        -8.3168    0.3183   52.2561 C.ar    1  ZINC000797321835    0.3000
     13 C13        -7.9881    1.1719   53.3098 C.ar    1  ZINC000797321835   -0.1400
     14 C14        -6.7286    1.7432   53.3151 C.ar    1  ZINC000797321835   -0.0800
     15 C15        -5.8607    1.4287   52.2610 C.ar    1  ZINC000797321835    0.1100
     16 C16        -4.5043    2.0111   52.2187 C.2     1  ZINC000797321835   -0.1400
     17 C17        -4.0468    2.9792   53.0386 C.2     1  ZINC000797321835   -0.0900
     18 C18        -2.7426    3.3624   52.8067 C.2     1  ZINC000797321835   -0.0900
     19 C19        -2.1321    2.7170   51.8066 C.2     1  ZINC000797321835   -0.2000
     20 Br20       -0.3507    3.0153   51.2464 Br      1  ZINC000797321835    0.0200
     21 S21        -3.2333    1.5443   51.0961 S.3     1  ZINC000797321835    0.1900
     22 N22        -6.2629    0.6041   51.3000 N.ar    1  ZINC000797321835   -0.1900
     23 N23        -7.4312    0.0727   51.3026 N.ar    1  ZINC000797321835   -0.2200
     24 H24       -10.3192   -2.1407   55.1336 H       1  ZINC000797321835    0.0700
     25 H25       -11.4431   -3.5115   55.2948 H       1  ZINC000797321835    0.0800
     26 H26       -10.0158   -3.6502   54.2403 H       1  ZINC000797321835    0.0700
     27 H27       -13.9400   -2.3898   51.7142 H       1  ZINC000797321835    0.1100
     28 H28       -13.9304   -0.7046   52.3224 H       1  ZINC000797321835    0.1100
     29 H29       -12.1660   -1.6146   50.3695 H       1  ZINC000797321835    0.1100
     30 H30       -11.7489   -0.2984   51.5171 H       1  ZINC000797321835    0.0900
     31 H31       -10.3744    0.2697   52.2022 H       1  ZINC000797321835    0.4200
     32 H32        -8.6964    1.3806   54.0979 H       1  ZINC000797321835    0.1600
     33 H33        -6.4235    2.4111   54.1071 H       1  ZINC000797321835    0.1500
     34 H34        -4.6542    3.4198   53.8154 H       1  ZINC000797321835    0.1600
     35 H35        -2.2506    4.1271   53.3893 H       1  ZINC000797321835    0.1600
@<TRIPOS>BOND
     1     1     2    1
     2     1    24    1
     3     1    25    1
     4     1    26    1
     5     2     7    1
     6     2     3   am
     7     3     4    2
     8     3     5    1
     9     5     6    1
    10     5    27    1
    11     5    28    1
    12     6     7    1
    13     6    29    1
    14     6    30    1
    15     7     8    1
    16     7     9    1
    17     9    10    2
    18     9    11   am
    19    11    12    1
    20    11    31    1
    21    12    23   ar
    22    12    13   ar
    23    13    14   ar
    24    13    32    1
    25    14    15   ar
    26    14    33    1
    27    15    16    1
    28    15    22   ar
    29    16    21    1
    30    16    17    2
    31    17    18    1
    32    17    34    1
    33    18    19    2
    34    18    35    1
    35    19    20    1
    36    19    21    1
    37    22    23   ar
@<TRIPOS>SUBSTRUCTURE
     1 ZINC000797321835        1 TEMP              0 ****  ****    0 ROOT


##########                                Name:    ZINC000119180466
##########                DOCK_Rotatable_Bonds:                  10
##########                         Heavy_Atoms:                  23
##########                    Molecular_Weight:             350.405
##########                DOCK_Rotatable_Bonds:                  10
##########                       Formal_Charge:           0.0299997
##########                     HBond_Acceptors:                   8
##########                        HBond_Donors:                   3
##########                         Heavy_Atoms:                  23
##########                          Grid_Score:          -28.804949
##########                     Grid_vdw_energy:          -25.511789
##########                      Grid_es_energy:           -3.293159
##########           Internal_energy_repulsive:           10.176189

@<TRIPOS>MOLECULE
ZINC000119180466
 44 44 1 0 0
SMALL
USER_CHARGES


@<TRIPOS>ATOM
      1 C1         -6.4177   -0.4413   51.9412 C.3     1  ZINC000119180466   -0.1300
      2 S2         -5.5794    1.1576   51.7646 S.3     1  ZINC000119180466   -0.2200
      3 C3         -6.4567    2.2116   52.9520 C.3     1  ZINC000119180466   -0.0700
      4 H4         -6.7617    1.6148   53.8115 H       1  ZINC000119180466    0.1100
      5 C5         -7.6947    2.8123   52.2832 C.3     1  ZINC000119180466    0.0800
      6 O6         -8.8551    2.0817   52.6854 O.3     1  ZINC000119180466   -0.5600
      7 C7         -5.5306    3.3377   53.4157 C.3     1  ZINC000119180466    0.1900
      8 H8         -5.5715    4.1595   52.7007 H       1  ZINC000119180466    0.1000
      9 C9         -5.9813    3.8351   54.7906 C.3     1  ZINC000119180466   -0.1700
     10 N10        -4.1573    2.8353   53.5042 N.am    1  ZINC000119180466   -0.7200
     11 C11        -3.1626    3.4756   52.8583 C.2     1  ZINC000119180466    0.7100
     12 O12        -3.4048    4.4711   52.2035 O.2     1  ZINC000119180466   -0.6000
     13 N13        -1.8994    3.0124   52.9384 N.am    1  ZINC000119180466   -0.7400
     14 C14        -0.8179    3.7094   52.2378 C.3     1  ZINC000119180466    0.2000
     15 H15        -1.0031    4.7833   52.2604 H       1  ZINC000119180466    0.1000
     16 C16         0.5142    3.4071   52.9272 C.3     1  ZINC000119180466   -0.1600
     17 C17        -0.7613    3.2393   50.8072 C.ar    1  ZINC000119180466   -0.0600
     18 C18        -0.8758    4.1515   49.7748 C.ar    1  ZINC000119180466   -0.1100
     19 C19        -0.8240    3.7201   48.4625 C.ar    1  ZINC000119180466   -0.0600
     20 C20        -0.6571    2.3767   48.1826 C.ar    1  ZINC000119180466   -0.1800
     21 C21        -0.6011    1.9064   46.7520 C.3     1  ZINC000119180466    0.5100
     22 F22         0.5013    1.0620   46.5815 F       1  ZINC000119180466   -0.1800
     23 F23        -1.7744    1.2095   46.4438 F       1  ZINC000119180466   -0.1800
     24 F24        -0.4781    3.0111   45.9024 F       1  ZINC000119180466   -0.1800
     25 C25        -0.5413    1.4647   49.2149 C.ar    1  ZINC000119180466   -0.0600
     26 C26        -0.5893    1.8965   50.5272 C.ar    1  ZINC000119180466   -0.1100
     27 H27        -7.4741   -0.3265   51.6987 H       1  ZINC000119180466    0.0800
     28 H28        -5.9658   -1.1654   51.2631 H       1  ZINC000119180466    0.1000
     29 H29        -6.3168   -0.7931   52.9680 H       1  ZINC000119180466    0.0800
     30 H30        -7.7998    3.8550   52.5831 H       1  ZINC000119180466    0.0500
     31 H31        -7.5865    2.7550   51.2001 H       1  ZINC000119180466    0.0600
     32 H32        -9.0342    2.1197   53.6349 H       1  ZINC000119180466    0.3800
     33 H33        -5.9404    3.0134   55.5056 H       1  ZINC000119180466    0.0700
     34 H34        -5.3214    4.6374   55.1209 H       1  ZINC000119180466    0.0700
     35 H35        -7.0030    4.2090   54.7248 H       1  ZINC000119180466    0.0700
     36 H36        -3.9639    2.0419   54.0275 H       1  ZINC000119180466    0.4100
     37 H37        -1.7064    2.2176   53.4598 H       1  ZINC000119180466    0.4000
     38 H38         1.3188    3.9256   52.4059 H       1  ZINC000119180466    0.0700
     39 H39         0.4731    3.7471   53.9620 H       1  ZINC000119180466    0.0700
     40 H40         0.6994    2.3332   52.9046 H       1  ZINC000119180466    0.0600
     41 H41        -1.0062    5.2009   49.9936 H       1  ZINC000119180466    0.1300
     42 H42        -0.9141    4.4327   47.6559 H       1  ZINC000119180466    0.1400
     43 H43        -0.4106    0.4152   48.9962 H       1  ZINC000119180466    0.1400
     44 H44        -0.4988    1.1840   51.3338 H       1  ZINC000119180466    0.1400
@<TRIPOS>BOND
     1     1     2    1
     2     1    27    1
     3     1    28    1
     4     1    29    1
     5     2     3    1
     6     3     4    1
     7     3     5    1
     8     3     7    1
     9     5     6    1
    10     5    30    1
    11     5    31    1
    12     6    32    1
    13     7     8    1
    14     7     9    1
    15     7    10    1
    16     9    33    1
    17     9    34    1
    18     9    35    1
    19    10    11   am
    20    10    36    1
    21    11    12    2
    22    11    13   am
    23    13    14    1
    24    13    37    1
    25    14    15    1
    26    14    16    1
    27    14    17    1
    28    16    38    1
    29    16    39    1
    30    16    40    1
    31    17    26   ar
    32    17    18   ar
    33    18    19   ar
    34    18    41    1
    35    19    20   ar
    36    19    42    1
    37    20    21    1
    38    20    25   ar
    39    21    22    1
    40    21    23    1
    41    21    24    1
    42    25    26   ar
    43    25    43    1
    44    26    44    1
@<TRIPOS>SUBSTRUCTURE
     1 ZINC000119180466        1 TEMP              0 ****  ****    0 ROOT


##########                                Name:    ZINC000822206030
##########                DOCK_Rotatable_Bonds:                   7
##########                         Heavy_Atoms:                  29
##########                    Molecular_Weight:             391.448
##########                DOCK_Rotatable_Bonds:                   7
##########                       Formal_Charge:         -0.00999995
##########                     HBond_Acceptors:                   7
##########                        HBond_Donors:                   1
##########                         Heavy_Atoms:                  29
##########                          Grid_Score:          -28.802237
##########                     Grid_vdw_energy:          -28.463186
##########                      Grid_es_energy:           -0.339051
##########           Internal_energy_repulsive:           20.062456

@<TRIPOS>MOLECULE
ZINC000822206030
 51 55 1 0 0
SMALL
USER_CHARGES


@<TRIPOS>ATOM
      1 C1        -14.1420   -0.5987   58.3058 C.3     1  ZINC000822206030   -0.1300
      2 C2        -13.4070   -1.8585   57.9266 C.ar    1  ZINC000822206030   -0.0400
      3 C3        -14.0870   -3.0576   57.8464 C.ar    1  ZINC000822206030   -0.1500
      4 C4        -13.4119   -4.2157   57.4985 C.ar    1  ZINC000822206030    0.1100
      5 F5        -14.0788   -5.3880   57.4210 F       1  ZINC000822206030   -0.1400
      6 C6        -12.0543   -4.1736   57.2296 C.ar    1  ZINC000822206030   -0.1500
      7 C7        -11.3704   -2.9761   57.3088 C.ar    1  ZINC000822206030   -0.0800
      8 C8        -12.0464   -1.8132   57.6522 C.ar    1  ZINC000822206030    0.1100
      9 N9        -11.3551   -0.5981   57.7326 N.am    1  ZINC000822206030   -0.5600
     10 C10       -11.5570    0.4288   56.7074 C.3     1  ZINC000822206030    0.1500
     11 C11       -10.5904    0.2033   55.5735 C.ar    1  ZINC000822206030   -0.0900
     12 C12       -10.8149   -0.8195   54.6697 C.ar    1  ZINC000822206030   -0.1000
     13 C13        -9.9331   -1.0303   53.6291 C.ar    1  ZINC000822206030   -0.0800
     14 C14        -8.8154   -0.2107   53.4898 C.ar    1  ZINC000822206030   -0.0100
     15 C15        -7.8636   -0.4323   52.3721 C.2     1  ZINC000822206030    0.2200
     16 N16        -7.8313   -1.4695   51.5595 N.2     1  ZINC000822206030   -0.2900
     17 N17        -6.8633   -1.2892   50.7281 N.pl3   1  ZINC000822206030   -0.2300
     18 N18        -6.2814   -0.1708   50.9882 N.2     1  ZINC000822206030   -0.0500
     19 N19        -6.8735    0.3864   51.9895 N.2     1  ZINC000822206030   -0.2700
     20 C20        -8.5940    0.8179   54.4027 C.ar    1  ZINC000822206030   -0.0800
     21 C21        -9.4850    1.0232   55.4367 C.ar    1  ZINC000822206030   -0.0900
     22 C22       -10.5039   -0.3733   58.7531 C.2     1  ZINC000822206030    0.5500
     23 O23        -9.9039    0.6786   58.8219 O.2     1  ZINC000822206030   -0.5000
     24 C24       -10.2975   -1.4288   59.8087 C.3     1  ZINC000822206030   -0.1900
     25 H25        -9.6369   -2.2497   59.5299 H       1  ZINC000822206030    0.1200
     26 C26       -11.4799   -1.7533   60.7239 C.3     1  ZINC000822206030   -0.1400
     27 C27       -10.2809   -0.9735   61.2693 C.3     1  ZINC000822206030   -0.0900
     28 H28        -9.6094   -1.4950   61.9515 H       1  ZINC000822206030    0.1100
     29 C29       -10.4755    0.5184   61.5471 C.3     1  ZINC000822206030   -0.1100
     30 C30       -10.4477    0.9747   63.0071 C.3     1  ZINC000822206030   -0.2000
     31 C31        -9.2737    1.3002   62.0815 C.3     1  ZINC000822206030   -0.1200
     32 H32       -14.5250   -0.1168   57.4063 H       1  ZINC000822206030    0.0900
     33 H33       -14.9726   -0.8474   58.9664 H       1  ZINC000822206030    0.0700
     34 H34       -13.4601    0.0794   58.8190 H       1  ZINC000822206030    0.0700
     35 H35       -15.1460   -3.0925   58.0554 H       1  ZINC000822206030    0.1400
     36 H36       -11.5297   -5.0778   56.9581 H       1  ZINC000822206030    0.1400
     37 H37       -10.3114   -2.9438   57.0993 H       1  ZINC000822206030    0.1400
     38 H38       -12.5784    0.3707   56.3312 H       1  ZINC000822206030    0.1000
     39 H39       -11.3849    1.4139   57.1411 H       1  ZINC000822206030    0.0900
     40 H40       -11.6817   -1.4547   54.7788 H       1  ZINC000822206030    0.1300
     41 H41       -10.1092   -1.8293   52.9242 H       1  ZINC000822206030    0.1400
     42 H42        -6.6123   -1.9005   50.0180 H       1  ZINC000822206030    0.4800
     43 H43        -7.7288    1.4560   54.2995 H       1  ZINC000822206030    0.1300
     44 H44        -9.3144    1.8205   56.1451 H       1  ZINC000822206030    0.1400
     45 H45       -12.4069   -1.2032   60.5625 H       1  ZINC000822206030    0.1000
     46 H46       -11.5968   -2.7876   61.0475 H       1  ZINC000822206030    0.1000
     47 H47       -11.1531    1.0382   60.8697 H       1  ZINC000822206030    0.1000
     48 H48       -11.1073    1.7948   63.2908 H       1  ZINC000822206030    0.0900
     49 H49       -10.2908    0.2121   63.7699 H       1  ZINC000822206030    0.0900
     50 H50        -8.3445    0.7516   62.2354 H       1  ZINC000822206030    0.0800
     51 H51        -9.1611    2.3343   61.7562 H       1  ZINC000822206030    0.0900
@<TRIPOS>BOND
     1     1     2    1
     2     1    32    1
     3     1    33    1
     4     1    34    1
     5     2     8   ar
     6     2     3   ar
     7     3     4   ar
     8     3    35    1
     9     4     5    1
    10     4     6   ar
    11     6     7   ar
    12     6    36    1
    13     7     8   ar
    14     7    37    1
    15     8     9    1
    16     9    10    1
    17     9    22   am
    18    10    11    1
    19    10    38    1
    20    10    39    1
    21    11    21   ar
    22    11    12   ar
    23    12    13   ar
    24    12    40    1
    25    13    14   ar
    26    13    41    1
    27    14    15    1
    28    14    20   ar
    29    15    19    1
    30    15    16    2
    31    16    17    1
    32    17    18    1
    33    17    42    1
    34    18    19    2
    35    20    21   ar
    36    20    43    1
    37    21    44    1
    38    22    23    2
    39    22    24    1
    40    24    25    1
    41    24    27    1
    42    24    26    1
    43    26    27    1
    44    26    45    1
    45    26    46    1
    46    27    28    1
    47    27    29    1
    48    29    31    1
    49    29    30    1
    50    29    47    1
    51    30    31    1
    52    30    48    1
    53    30    49    1
    54    31    50    1
    55    31    51    1
@<TRIPOS>SUBSTRUCTURE
     1 ZINC000822206030        1 TEMP              0 ****  ****    0 ROOT


##########                                Name:    ZINC000052999724
##########                DOCK_Rotatable_Bonds:                   6
##########                         Heavy_Atoms:                  25
##########                    Molecular_Weight:             398.571
##########                DOCK_Rotatable_Bonds:                   6
##########                       Formal_Charge:           0.0399994
##########                     HBond_Acceptors:                   8
##########                        HBond_Donors:                   1
##########                         Heavy_Atoms:                  25
##########                          Grid_Score:          -28.795727
##########                     Grid_vdw_energy:          -28.229824
##########                      Grid_es_energy:           -0.565903
##########           Internal_energy_repulsive:           13.919710

@<TRIPOS>MOLECULE
ZINC000052999724
 47 49 1 0 0
SMALL
USER_CHARGES


@<TRIPOS>ATOM
      1 C1          2.7763    0.1965   48.5488 C.3     1  ZINC000052999724   -0.1400
      2 C2          2.0806    1.4675   48.0575 C.3     1  ZINC000052999724   -0.0400
      3 C3          3.0012    2.2101   47.0871 C.3     1  ZINC000052999724   -0.1400
      4 C4          0.8003    1.0993   47.3532 C.2     1  ZINC000052999724   -0.0400
      5 C5         -0.3217    1.8790   47.3776 C.2     1  ZINC000052999724   -0.2600
      6 C6         -0.4505    3.1620   48.0746 C.2     1  ZINC000052999724    0.6000
      7 O7          0.0800    4.1580   47.6188 O.2     1  ZINC000052999724   -0.5200
      8 N8         -1.1564    3.2387   49.2202 N.am    1  ZINC000052999724   -0.6000
      9 C9         -1.7974    2.0439   49.7860 C.3     1  ZINC000052999724    0.1100
     10 C10        -1.3464    1.8847   51.2413 C.3     1  ZINC000052999724   -0.1400
     11 C11        -1.6397    3.1773   52.0063 C.3     1  ZINC000052999724    0.1500
     12 N12        -1.2399    3.0170   53.4066 N.am    1  ZINC000052999724   -1.1100
     13 S13        -2.0181    3.8713   54.5928 S.o2    1  ZINC000052999724    2.7200
     14 O14        -1.7014    5.2393   54.3756 O.2     1  ZINC000052999724   -0.9500
     15 O15        -3.3505    3.3788   54.6335 O.2     1  ZINC000052999724   -0.9400
     16 C16        -1.2762    3.4265   56.1279 C.2     1  ZINC000052999724   -0.8000
     17 C17        -1.6813    2.4309   56.9178 C.2     1  ZINC000052999724    0.0100
     18 C18        -0.9423    2.2685   58.0770 C.2     1  ZINC000052999724   -0.1600
     19 C19         0.0629    3.1323   58.2284 C.2     1  ZINC000052999724   -0.1700
     20 S20         0.1164    4.2226   56.8493 S.3     1  ZINC000052999724    0.2100
     21 C21        -0.8541    4.3320   51.3807 C.3     1  ZINC000052999724   -0.1500
     22 C22        -1.2945    4.5176   49.9302 C.3     1  ZINC000052999724    0.1100
     23 S23        -1.5858    1.0968   46.4386 S.3     1  ZINC000052999724    0.2100
     24 C24        -0.5617   -0.2161   46.0663 C.2     1  ZINC000052999724   -0.2400
     25 C25         0.6466   -0.0516   46.6173 C.2     1  ZINC000052999724   -0.1300
     26 H26         2.1205   -0.3325   49.2403 H       1  ZINC000052999724    0.0600
     27 H27         3.0017   -0.4463   47.6980 H       1  ZINC000052999724    0.0600
     28 H28         3.7023    0.4629   49.0583 H       1  ZINC000052999724    0.0600
     29 H29         1.8553    2.1105   48.9084 H       1  ZINC000052999724    0.0800
     30 H30         3.2266    1.5673   46.2361 H       1  ZINC000052999724    0.0600
     31 H31         2.5057    3.1157   46.7370 H       1  ZINC000052999724    0.0600
     32 H32         3.9273    2.4765   47.5964 H       1  ZINC000052999724    0.0600
     33 H33        -2.8807    2.1586   49.7496 H       1  ZINC000052999724    0.0800
     34 H34        -1.5015    1.1647   49.2135 H       1  ZINC000052999724    0.0900
     35 H35        -1.8879    1.0585   51.7018 H       1  ZINC000052999724    0.0900
     36 H36        -0.2762    1.6799   51.2701 H       1  ZINC000052999724    0.0800
     37 H37        -2.7066    3.3949   51.9559 H       1  ZINC000052999724    0.0900
     38 H38        -0.5194    2.4106   53.6389 H       1  ZINC000052999724    0.4200
     39 H39        -2.5222    1.7996   56.6718 H       1  ZINC000052999724    0.1600
     40 H40        -1.1631    1.5009   58.8039 H       1  ZINC000052999724    0.1500
     41 H41         0.7422    3.1560   59.0677 H       1  ZINC000052999724    0.1800
     42 H42        -1.0453    5.2475   51.9404 H       1  ZINC000052999724    0.1000
     43 H43         0.2115    4.1041   51.4083 H       1  ZINC000052999724    0.0800
     44 H44        -0.6692    5.2718   49.4522 H       1  ZINC000052999724    0.1000
     45 H45        -2.3372    4.8336   49.9025 H       1  ZINC000052999724    0.0800
     46 H46        -0.8491   -1.0646   45.4632 H       1  ZINC000052999724    0.1700
     47 H47         1.4405   -0.7743   46.4993 H       1  ZINC000052999724    0.1400
@<TRIPOS>BOND
     1     1     2    1
     2     1    26    1
     3     1    27    1
     4     1    28    1
     5     2     3    1
     6     2     4    1
     7     2    29    1
     8     3    30    1
     9     3    31    1
    10     3    32    1
    11     4    25    1
    12     4     5    2
    13     5     6    1
    14     5    23    1
    15     6     7    2
    16     6     8   am
    17     8    22    1
    18     8     9    1
    19     9    10    1
    20     9    33    1
    21     9    34    1
    22    10    11    1
    23    10    35    1
    24    10    36    1
    25    11    12    1
    26    11    21    1
    27    11    37    1
    28    12    13   am
    29    12    38    1
    30    13    14    2
    31    13    15    2
    32    13    16    1
    33    16    20    1
    34    16    17    2
    35    17    18    1
    36    17    39    1
    37    18    19    2
    38    18    40    1
    39    19    20    1
    40    19    41    1
    41    21    22    1
    42    21    42    1
    43    21    43    1
    44    22    44    1
    45    22    45    1
    46    23    24    1
    47    24    25    2
    48    24    46    1
    49    25    47    1
@<TRIPOS>SUBSTRUCTURE
     1 ZINC000052999724        1 TEMP              0 ****  ****    0 ROOT


##########                                Name:    ZINC000507831344
##########                DOCK_Rotatable_Bonds:                   6
##########                         Heavy_Atoms:                  31
##########                    Molecular_Weight:              422.53
##########                DOCK_Rotatable_Bonds:                   6
##########                       Formal_Charge:          -0.0200002
##########                     HBond_Acceptors:                   8
##########                        HBond_Donors:                   2
##########                         Heavy_Atoms:                  31
##########                          Grid_Score:          -28.785812
##########                     Grid_vdw_energy:          -28.654413
##########                      Grid_es_energy:           -0.131398
##########           Internal_energy_repulsive:           30.040163

@<TRIPOS>MOLECULE
ZINC000507831344
 61 64 1 0 0
SMALL
USER_CHARGES


@<TRIPOS>ATOM
      1 C1         -4.3609    4.0199   55.0467 C.3     1  ZINC000507831344   -0.1000
      2 C2         -4.6490    3.2194   53.8028 C.ar    1  ZINC000507831344   -0.0800
      3 C3         -3.6130    2.6942   53.0529 C.ar    1  ZINC000507831344   -0.0800
      4 C4         -3.9263    1.9600   51.9100 C.ar    1  ZINC000507831344    0.0900
      5 N5         -2.9082    1.4084   51.1198 N.am    1  ZINC000507831344   -0.6700
      6 C6         -1.9779    2.2095   50.5637 C.2     1  ZINC000507831344    0.5100
      7 O7         -2.0216    3.4077   50.7469 O.2     1  ZINC000507831344   -0.5100
      8 C8         -0.8834    1.6166   49.7142 C.3     1  ZINC000507831344   -0.1400
      9 C9         -1.2612    1.7398   48.2367 C.3     1  ZINC000507831344   -0.0500
     10 C10        -0.0149    1.9474   47.4153 C.2     1  ZINC000507831344   -0.2200
     11 C11         0.5884    0.8929   46.8058 C.2     1  ZINC000507831344    0.2100
     12 C12         0.0189   -0.4955   46.9439 C.3     1  ZINC000507831344   -0.1400
     13 N13         1.7116    1.1059   46.0697 N.pl3   1  ZINC000507831344   -0.3000
     14 N14         2.5363    0.2393   45.3423 N.am    1  ZINC000507831344   -0.5100
     15 C15         3.5300    0.9604   44.7889 C.2     1  ZINC000507831344    0.5500
     16 O16         4.4278    0.5202   44.0891 O.2     1  ZINC000507831344   -0.5400
     17 C17         3.3584    2.2954   45.1515 C.2     1  ZINC000507831344   -0.3500
     18 C18         2.2202    2.3748   45.9509 C.2     1  ZINC000507831344    0.3500
     19 N19         1.6190    3.4068   46.5544 N.2     1  ZINC000507831344   -0.4800
     20 C20         0.5284    3.2285   47.2683 C.2     1  ZINC000507831344    0.2500
     21 C21        -0.1317    4.4059   47.9384 C.3     1  ZINC000507831344   -0.1200
     22 C22        -5.2570    1.7814   51.5647 C.ar    1  ZINC000507831344    0.0800
     23 N23        -6.2210    2.2971   52.3037 N.ar    1  ZINC000507831344   -0.4900
     24 C24        -5.9608    2.9950   53.3978 C.ar    1  ZINC000507831344    0.2800
     25 N25        -7.0114    3.5193   54.1459 N.3     1  ZINC000507831344   -0.4800
     26 C26        -7.3739    4.8621   53.6749 C.3     1  ZINC000507831344    0.0600
     27 C27        -8.4277    5.4639   54.6073 C.3     1  ZINC000507831344   -0.1200
     28 C28        -9.6625    4.5585   54.6257 C.3     1  ZINC000507831344   -0.1200
     29 C29        -9.2490    3.1537   55.0730 C.3     1  ZINC000507831344   -0.1100
     30 C30        -8.1713    2.6190   54.1272 C.3     1  ZINC000507831344    0.0900
     31 H31        -8.5717    2.5633   53.1149 H       1  ZINC000507831344    0.0600
     32 C32        -7.7405    1.2232   54.5824 C.3     1  ZINC000507831344   -0.1400
     33 H33        -4.4051    3.3661   55.9178 H       1  ZINC000507831344    0.0700
     34 H34        -3.3666    4.4605   54.9731 H       1  ZINC000507831344    0.0600
     35 H35        -5.1027    4.8120   55.1490 H       1  ZINC000507831344    0.0800
     36 H36        -2.5851    2.8494   53.3455 H       1  ZINC000507831344    0.1500
     37 H37        -2.8733    0.4502   50.9731 H       1  ZINC000507831344    0.4100
     38 H38         0.0484    2.1518   49.8969 H       1  ZINC000507831344    0.1000
     39 H39        -0.7545    0.5649   49.9698 H       1  ZINC000507831344    0.1000
     40 H40        -1.7622    0.8276   47.9125 H       1  ZINC000507831344    0.0900
     41 H41        -1.9306    2.5895   48.1025 H       1  ZINC000507831344    0.1000
     42 H42        -0.6952   -0.6768   46.1407 H       1  ZINC000507831344    0.1000
     43 H43         0.8255   -1.2265   46.8849 H       1  ZINC000507831344    0.0800
     44 H44        -0.4851   -0.5875   47.9060 H       1  ZINC000507831344    0.1100
     45 H45         2.4131   -0.7186   45.2525 H       1  ZINC000507831344    0.4400
     46 H46         3.9939    3.1201   44.8645 H       1  ZINC000507831344    0.1700
     47 H47         0.4331    5.3122   47.7195 H       1  ZINC000507831344    0.0900
     48 H48        -1.1499    4.5130   47.5644 H       1  ZINC000507831344    0.1000
     49 H49        -0.1556    4.2441   49.0161 H       1  ZINC000507831344    0.0900
     50 H50        -5.5076    1.2141   50.6806 H       1  ZINC000507831344    0.1600
     51 H51        -6.4879    5.4969   53.6707 H       1  ZINC000507831344    0.0700
     52 H52        -7.7778    4.7960   52.6648 H       1  ZINC000507831344    0.0500
     53 H53        -8.0196    5.5431   55.6149 H       1  ZINC000507831344    0.0700
     54 H54        -8.7080    6.4543   54.2487 H       1  ZINC000507831344    0.0700
     55 H55       -10.3986    4.9605   55.3217 H       1  ZINC000507831344    0.0700
     56 H56       -10.0937    4.5102   53.6258 H       1  ZINC000507831344    0.0600
     57 H57        -8.8539    3.1965   56.0880 H       1  ZINC000507831344    0.0700
     58 H58       -10.1161    2.4936   55.0472 H       1  ZINC000507831344    0.0700
     59 H59        -8.5794    0.5342   54.4851 H       1  ZINC000507831344    0.0600
     60 H60        -6.9131    0.8782   53.9624 H       1  ZINC000507831344    0.0500
     61 H61        -7.4219    1.2630   55.6241 H       1  ZINC000507831344    0.0600
@<TRIPOS>BOND
     1     1     2    1
     2     1    33    1
     3     1    34    1
     4     1    35    1
     5     2    24   ar
     6     2     3   ar
     7     3     4   ar
     8     3    36    1
     9     4     5    1
    10     4    22   ar
    11     5     6   am
    12     5    37    1
    13     6     7    2
    14     6     8    1
    15     8     9    1
    16     8    38    1
    17     8    39    1
    18     9    10    1
    19     9    40    1
    20     9    41    1
    21    10    20    1
    22    10    11    2
    23    11    12    1
    24    11    13    1
    25    12    42    1
    26    12    43    1
    27    12    44    1
    28    13    18    1
    29    13    14    1
    30    14    15   am
    31    14    45    1
    32    15    16    2
    33    15    17    1
    34    17    18    2
    35    17    46    1
    36    18    19    1
    37    19    20    2
    38    20    21    1
    39    21    47    1
    40    21    48    1
    41    21    49    1
    42    22    23   ar
    43    22    50    1
    44    23    24   ar
    45    24    25    1
    46    25    30    1
    47    25    26    1
    48    26    27    1
    49    26    51    1
    50    26    52    1
    51    27    28    1
    52    27    53    1
    53    27    54    1
    54    28    29    1
    55    28    55    1
    56    28    56    1
    57    29    30    1
    58    29    57    1
    59    29    58    1
    60    30    31    1
    61    30    32    1
    62    32    59    1
    63    32    60    1
    64    32    61    1
@<TRIPOS>SUBSTRUCTURE
     1 ZINC000507831344        1 TEMP              0 ****  ****    0 ROOT


##########                                Name:    ZINC000811540126
##########                DOCK_Rotatable_Bonds:                   7
##########                         Heavy_Atoms:                  21
##########                    Molecular_Weight:             397.212
##########                DOCK_Rotatable_Bonds:                   7
##########                       Formal_Charge:           0.0100001
##########                     HBond_Acceptors:                   4
##########                        HBond_Donors:                   3
##########                         Heavy_Atoms:                  21
##########                          Grid_Score:          -28.769901
##########                     Grid_vdw_energy:          -28.708363
##########                      Grid_es_energy:           -0.061538
##########           Internal_energy_repulsive:           12.928228

@<TRIPOS>MOLECULE
ZINC000811540126
 37 38 1 0 0
SMALL
USER_CHARGES


@<TRIPOS>ATOM
      1 C1        -14.6035   -3.9425   54.9819 C.3     1  ZINC000811540126   -0.1600
      2 C2        -13.1427   -4.3729   55.1302 C.3     1  ZINC000811540126    0.1200
      3 H3        -12.9200   -5.1577   54.4073 H       1  ZINC000811540126    0.1000
      4 N4        -12.2678   -3.2231   54.8880 N.am    1  ZINC000811540126   -0.7200
      5 C5        -11.8318   -2.9591   53.6403 C.2     1  ZINC000811540126    0.5700
      6 O6        -12.1659   -3.6744   52.7155 O.2     1  ZINC000811540126   -0.5100
      7 C7        -10.9492   -1.8023   53.3967 C.ar    1  ZINC000811540126   -0.1600
      8 C8         -9.6951   -1.9869   52.8101 C.ar    1  ZINC000811540126   -0.0400
      9 C9         -8.8751   -0.9015   52.5851 C.ar    1  ZINC000811540126   -0.1200
     10 I10        -6.9943   -1.1800   51.7053 I       1  ZINC000811540126   -0.0300
     11 C11        -9.2896    0.3726   52.9381 C.ar    1  ZINC000811540126   -0.0400
     12 C12       -10.5270    0.5686   53.5191 C.ar    1  ZINC000811540126   -0.1500
     13 C13       -11.3668   -0.5109   53.7473 C.ar    1  ZINC000811540126    0.1900
     14 O14       -12.5828   -0.3196   54.3175 O.3     1  ZINC000811540126   -0.4700
     15 C15       -12.9086   -4.9026   56.5464 C.3     1  ZINC000811540126    0.1400
     16 H16       -11.8753   -5.2357   56.6435 H       1  ZINC000811540126    0.1300
     17 O17       -13.7885   -6.0005   56.7960 O.3     1  ZINC000811540126   -0.5400
     18 C18       -13.1785   -3.8057   57.5439 C.ar    1  ZINC000811540126   -0.1200
     19 C19       -14.4430   -3.6565   58.0818 C.ar    1  ZINC000811540126   -0.1100
     20 C20       -14.6907   -2.6503   58.9969 C.ar    1  ZINC000811540126   -0.1100
     21 C21       -13.6735   -1.7936   59.3743 C.ar    1  ZINC000811540126   -0.1200
     22 C22       -12.4087   -1.9434   58.8369 C.ar    1  ZINC000811540126   -0.1100
     23 C23       -12.1601   -2.9522   57.9252 C.ar    1  ZINC000811540126   -0.1100
     24 H24       -14.7704   -3.5650   53.9730 H       1  ZINC000811540126    0.0600
     25 H25       -15.2544   -4.7979   55.1622 H       1  ZINC000811540126    0.0700
     26 H26       -14.8262   -3.1577   55.7048 H       1  ZINC000811540126    0.0700
     27 H27       -12.0022   -2.6518   55.6256 H       1  ZINC000811540126    0.3900
     28 H28        -9.3681   -2.9783   52.5335 H       1  ZINC000811540126    0.1300
     29 H29        -8.6413    1.2172   52.7581 H       1  ZINC000811540126    0.1400
     30 H30       -10.8430    1.5647   53.7918 H       1  ZINC000811540126    0.1500
     31 H31       -13.1671   -1.0883   54.2652 H       1  ZINC000811540126    0.4000
     32 H32       -13.6615   -6.7500   56.1985 H       1  ZINC000811540126    0.3700
     33 H33       -15.2377   -4.3258   57.7870 H       1  ZINC000811540126    0.1100
     34 H34       -15.6789   -2.5334   59.4167 H       1  ZINC000811540126    0.1200
     35 H35       -13.8671   -1.0071   60.0886 H       1  ZINC000811540126    0.1200
     36 H36       -11.6141   -1.2738   59.1316 H       1  ZINC000811540126    0.1300
     37 H37       -11.1719   -3.0692   57.5054 H       1  ZINC000811540126    0.1200
@<TRIPOS>BOND
     1     1     2    1
     2     1    24    1
     3     1    25    1
     4     1    26    1
     5     2     3    1
     6     2     4    1
     7     2    15    1
     8     4     5   am
     9     4    27    1
    10     5     6    2
    11     5     7    1
    12     7    13   ar
    13     7     8   ar
    14     8     9   ar
    15     8    28    1
    16     9    10    1
    17     9    11   ar
    18    11    12   ar
    19    11    29    1
    20    12    13   ar
    21    12    30    1
    22    13    14    1
    23    14    31    1
    24    15    16    1
    25    15    17    1
    26    15    18    1
    27    17    32    1
    28    18    23   ar
    29    18    19   ar
    30    19    20   ar
    31    19    33    1
    32    20    21   ar
    33    20    34    1
    34    21    22   ar
    35    21    35    1
    36    22    23   ar
    37    22    36    1
    38    23    37    1
@<TRIPOS>SUBSTRUCTURE
     1 ZINC000811540126        1 TEMP              0 ****  ****    0 ROOT


##########                                Name:    ZINC000535362552
##########                DOCK_Rotatable_Bonds:                   5
##########                         Heavy_Atoms:                  26
##########                    Molecular_Weight:             416.228
##########                DOCK_Rotatable_Bonds:                   5
##########                       Formal_Charge:         -0.00999981
##########                     HBond_Acceptors:                   6
##########                        HBond_Donors:                   1
##########                         Heavy_Atoms:                  26
##########                          Grid_Score:          -28.719675
##########                     Grid_vdw_energy:          -28.628319
##########                      Grid_es_energy:           -0.091356
##########           Internal_energy_repulsive:            4.205960

@<TRIPOS>MOLECULE
ZINC000535362552
 40 43 1 0 0
SMALL
USER_CHARGES


@<TRIPOS>ATOM
      1 C1         -5.6079    0.7351   51.5782 C.3     1  ZINC000535362552    0.0300
      2 O2         -6.7518    0.3242   52.3725 O.3     1  ZINC000535362552   -0.3400
      3 C3         -7.4203   -0.7727   51.9618 C.2     1  ZINC000535362552    0.5500
      4 O4         -6.9914   -1.4350   51.0367 O.2     1  ZINC000535362552   -0.4800
      5 C5         -8.6657   -1.1669   52.6314 C.2     1  ZINC000535362552   -0.0100
      6 C6         -9.2478   -0.4946   53.6591 C.2     1  ZINC000535362552   -0.0900
      7 C7        -10.4560   -1.2442   54.0008 C.ar    1  ZINC000535362552   -0.1300
      8 C8        -11.4670   -1.0776   54.9500 C.ar    1  ZINC000535362552   -0.0600
      9 C9        -12.5004   -1.9936   55.0126 C.ar    1  ZINC000535362552    0.1200
     10 N10       -13.5191   -1.8340   55.9613 N.am    1  ZINC000535362552   -0.6700
     11 C11       -13.5864   -2.6611   57.0234 C.2     1  ZINC000535362552    0.5200
     12 O12       -12.7651   -3.5434   57.1580 O.2     1  ZINC000535362552   -0.5000
     13 C13       -14.6821   -2.4895   58.0436 C.3     1  ZINC000535362552   -0.1000
     14 H14       -15.5144   -1.9221   57.6270 H       1  ZINC000535362552    0.1300
     15 C15       -15.1602   -3.8606   58.5774 C.3     1  ZINC000535362552    0.0600
     16 O16       -15.4307   -3.5863   59.9625 O.3     1  ZINC000535362552   -0.2900
     17 C17       -14.6384   -2.5607   60.3797 C.ar    1  ZINC000535362552    0.1300
     18 C18       -14.2793   -2.1773   61.6692 C.ar    1  ZINC000535362552   -0.1300
     19 C19       -13.4605   -1.0846   61.8669 C.ar    1  ZINC000535362552   -0.0500
     20 C20       -12.9894   -0.3600   60.7869 C.ar    1  ZINC000535362552   -0.1200
     21 Br21      -11.8719    1.1399   61.0651 Br      1  ZINC000535362552   -0.0400
     22 C22       -13.3388   -0.7374   59.5013 C.ar    1  ZINC000535362552   -0.0100
     23 C23       -14.1523   -1.8297   59.3020 C.ar    1  ZINC000535362552   -0.1600
     24 C24       -12.5316   -3.0753   54.1341 C.ar    1  ZINC000535362552   -0.0900
     25 C25       -11.5384   -3.2473   53.1957 C.ar    1  ZINC000535362552   -0.0900
     26 C26       -10.4905   -2.3377   53.1151 C.ar    1  ZINC000535362552    0.0700
     27 O27        -9.4087   -2.2482   52.3156 O.3     1  ZINC000535362552   -0.1700
     28 H28        -5.9319    0.9536   50.5606 H       1  ZINC000535362552    0.0700
     29 H29        -5.1626    1.6279   52.0172 H       1  ZINC000535362552    0.1100
     30 H30        -4.8708   -0.0676   51.5604 H       1  ZINC000535362552    0.0700
     31 H31        -8.8901    0.4098   54.1288 H       1  ZINC000535362552    0.1800
     32 H32       -11.4415   -0.2393   55.6302 H       1  ZINC000535362552    0.1400
     33 H33       -14.1759   -1.1284   55.8536 H       1  ZINC000535362552    0.4100
     34 H34       -16.0663   -4.1807   58.0630 H       1  ZINC000535362552    0.1200
     35 H35       -14.3739   -4.6091   58.4783 H       1  ZINC000535362552    0.0900
     36 H36       -14.6429   -2.7376   62.5179 H       1  ZINC000535362552    0.1400
     37 H37       -13.1862   -0.7932   62.8700 H       1  ZINC000535362552    0.1400
     38 H38       -12.9734   -0.1748   58.6549 H       1  ZINC000535362552    0.1400
     39 H39       -13.3428   -3.7862   54.1903 H       1  ZINC000535362552    0.1500
     40 H40       -11.5740   -4.0901   52.5213 H       1  ZINC000535362552    0.1500
@<TRIPOS>BOND
     1     1     2    1
     2     1    28    1
     3     1    29    1
     4     1    30    1
     5     2     3    1
     6     3     4    2
     7     3     5    1
     8     5    27    1
     9     5     6    2
    10     6     7    1
    11     6    31    1
    12     7    26   ar
    13     7     8   ar
    14     8     9   ar
    15     8    32    1
    16     9    10    1
    17     9    24   ar
    18    10    11   am
    19    10    33    1
    20    11    12    2
    21    11    13    1
    22    13    14    1
    23    13    23    1
    24    13    15    1
    25    15    16    1
    26    15    34    1
    27    15    35    1
    28    16    17    1
    29    17    23   ar
    30    17    18   ar
    31    18    19   ar
    32    18    36    1
    33    19    20   ar
    34    19    37    1
    35    20    21    1
    36    20    22   ar
    37    22    23   ar
    38    22    38    1
    39    24    25   ar
    40    24    39    1
    41    25    26   ar
    42    25    40    1
    43    26    27    1
@<TRIPOS>SUBSTRUCTURE
     1 ZINC000535362552        1 TEMP              0 ****  ****    0 ROOT


##########                                Name:    ZINC000194290865
##########                DOCK_Rotatable_Bonds:                   7
##########                         Heavy_Atoms:                  28
##########                    Molecular_Weight:             387.479
##########                DOCK_Rotatable_Bonds:                   7
##########                       Formal_Charge:          -0.0400003
##########                     HBond_Acceptors:                   7
##########                        HBond_Donors:                   0
##########                         Heavy_Atoms:                  28
##########                          Grid_Score:          -28.718960
##########                     Grid_vdw_energy:          -28.545238
##########                      Grid_es_energy:           -0.173720
##########           Internal_energy_repulsive:           25.886419

@<TRIPOS>MOLECULE
ZINC000194290865
 57 59 1 0 0
SMALL
USER_CHARGES


@<TRIPOS>ATOM
      1 C1         -8.4181   -1.3589   59.4444 C.3     1  ZINC000194290865   -0.1500
      2 C2         -9.9167   -1.1797   59.1932 C.3     1  ZINC000194290865    0.0600
      3 O3        -10.2897   -1.8754   57.9746 O.3     1  ZINC000194290865   -0.3600
      4 C4        -11.6008   -1.9659   57.7015 C.2     1  ZINC000194290865    0.4700
      5 O5        -12.4127   -1.5426   58.4898 O.2     1  ZINC000194290865   -0.4900
      6 C6        -12.0602   -2.5955   56.4116 C.3     1  ZINC000194290865   -0.0600
      7 C7        -12.3800   -4.0759   56.6282 C.3     1  ZINC000194290865   -0.0700
      8 C8        -11.2007   -4.7556   57.3272 C.3     1  ZINC000194290865   -0.1700
      9 C9        -13.6319   -4.2053   57.4981 C.3     1  ZINC000194290865   -0.1600
     10 C10       -13.2988   -1.8510   55.8618 C.3     1  ZINC000194290865   -0.1200
     11 C11       -12.6833   -0.8779   54.8250 C.3     1  ZINC000194290865    0.0900
     12 N12       -11.5922   -1.6743   54.2176 N.am    1  ZINC000194290865   -0.6100
     13 C13       -11.2306   -1.6985   52.9195 C.2     1  ZINC000194290865    0.5800
     14 O14       -10.3093   -2.4040   52.5584 O.2     1  ZINC000194290865   -0.5000
     15 C15       -11.9554   -0.8656   51.9338 C.ar    1  ZINC000194290865    0.0100
     16 C16       -11.5660    0.4633   51.6781 C.ar    1  ZINC000194290865   -0.2200
     17 C17       -12.2817    1.2198   50.7341 C.ar    1  ZINC000194290865    0.3000
     18 N18       -13.3098    0.6823   50.0957 N.ar    1  ZINC000194290865   -0.4700
     19 C19       -13.6964   -0.5566   50.3139 C.ar    1  ZINC000194290865    0.2100
     20 C20       -14.8751   -1.1034   49.5506 C.3     1  ZINC000194290865   -0.1100
     21 C21       -13.0430   -1.3727   51.2231 C.ar    1  ZINC000194290865   -0.1800
     22 O22       -11.7036    2.4371   50.6892 O.3     1  ZINC000194290865   -0.0800
     23 N23       -10.6199    2.4765   51.5955 N.2     1  ZINC000194290865   -0.2600
     24 C24       -10.5089    1.3310   52.1960 C.2     1  ZINC000194290865    0.1600
     25 C25        -9.4811    0.9635   53.2350 C.3     1  ZINC000194290865   -0.0400
     26 C26        -8.2385    0.3969   52.5453 C.3     1  ZINC000194290865   -0.1500
     27 C27        -9.0967    2.2097   54.0352 C.3     1  ZINC000194290865   -0.1400
     28 C28       -10.9817   -2.4347   55.3241 C.3     1  ZINC000194290865    0.1200
     29 H29        -8.1914   -2.4200   59.5479 H       1  ZINC000194290865    0.0700
     30 H30        -7.8574   -0.9476   58.6050 H       1  ZINC000194290865    0.0700
     31 H31        -8.1381   -0.8365   60.3593 H       1  ZINC000194290865    0.0800
     32 H32       -10.4774   -1.5910   60.0326 H       1  ZINC000194290865    0.0700
     33 H33       -10.1434   -0.1186   59.0898 H       1  ZINC000194290865    0.0700
     34 H34       -12.5561   -4.5543   55.6648 H       1  ZINC000194290865    0.0900
     35 H35       -10.3089   -4.6634   56.7074 H       1  ZINC000194290865    0.0500
     36 H36       -11.0247   -4.2771   58.2907 H       1  ZINC000194290865    0.0800
     37 H37       -11.4286   -5.8103   57.4814 H       1  ZINC000194290865    0.0600
     38 H38       -14.4720   -3.7212   57.0003 H       1  ZINC000194290865    0.0500
     39 H39       -13.8598   -5.2600   57.6525 H       1  ZINC000194290865    0.0600
     40 H40       -13.4559   -3.7268   58.4617 H       1  ZINC000194290865    0.0800
     41 H41       -13.9844   -2.5469   55.3785 H       1  ZINC000194290865    0.0900
     42 H42       -13.8023   -1.3005   56.6564 H       1  ZINC000194290865    0.0900
     43 H43       -13.4215   -0.6001   54.0727 H       1  ZINC000194290865    0.0900
     44 H44       -12.2839    0.0081   55.3188 H       1  ZINC000194290865    0.0900
     45 H45       -14.5273   -1.5629   48.6254 H       1  ZINC000194290865    0.0900
     46 H46       -15.3861   -1.8506   50.1577 H       1  ZINC000194290865    0.0900
     47 H47       -15.5644   -0.2921   49.3165 H       1  ZINC000194290865    0.0900
     48 H48       -13.3774   -2.3867   51.3860 H       1  ZINC000194290865    0.1600
     49 H49        -9.8968    0.2136   53.9080 H       1  ZINC000194290865    0.1100
     50 H50        -7.8228    1.1469   51.8723 H       1  ZINC000194290865    0.0700
     51 H51        -7.4951    0.1312   53.2968 H       1  ZINC000194290865    0.0700
     52 H52        -8.5123   -0.4908   51.9752 H       1  ZINC000194290865    0.0600
     53 H53        -9.9820    2.6133   54.5267 H       1  ZINC000194290865    0.0600
     54 H54        -8.3533    1.9438   54.7868 H       1  ZINC000194290865    0.0700
     55 H55        -8.6810    2.9596   53.3624 H       1  ZINC000194290865    0.0600
     56 H56       -10.1290   -1.8868   55.7250 H       1  ZINC000194290865    0.0800
     57 H57       -10.6630   -3.4149   54.9694 H       1  ZINC000194290865    0.1000
@<TRIPOS>BOND
     1     1     2    1
     2     1    29    1
     3     1    30    1
     4     1    31    1
     5     2     3    1
     6     2    32    1
     7     2    33    1
     8     3     4    1
     9     4     5    2
    10     4     6    1
    11     6    28    1
    12     6     7    1
    13     6    10    1
    14     7     8    1
    15     7     9    1
    16     7    34    1
    17     8    35    1
    18     8    36    1
    19     8    37    1
    20     9    38    1
    21     9    39    1
    22     9    40    1
    23    10    11    1
    24    10    41    1
    25    10    42    1
    26    11    12    1
    27    11    43    1
    28    11    44    1
    29    12    13   am
    30    12    28    1
    31    13    14    2
    32    13    15    1
    33    15    21   ar
    34    15    16   ar
    35    16    24    1
    36    16    17   ar
    37    17    18   ar
    38    17    22    1
    39    18    19   ar
    40    19    20    1
    41    19    21   ar
    42    20    45    1
    43    20    46    1
    44    20    47    1
    45    21    48    1
    46    22    23    1
    47    23    24    2
    48    24    25    1
    49    25    26    1
    50    25    27    1
    51    25    49    1
    52    26    50    1
    53    26    51    1
    54    26    52    1
    55    27    53    1
    56    27    54    1
    57    27    55    1
    58    28    56    1
    59    28    57    1
@<TRIPOS>SUBSTRUCTURE
     1 ZINC000194290865        1 TEMP              0 ****  ****    0 ROOT


##########                                Name:    ZINC000646817380
##########                DOCK_Rotatable_Bonds:                   6
##########                         Heavy_Atoms:                  25
##########                    Molecular_Weight:             347.457
##########                DOCK_Rotatable_Bonds:                   6
##########                       Formal_Charge:           0.0199991
##########                     HBond_Acceptors:                   6
##########                        HBond_Donors:                   1
##########                         Heavy_Atoms:                  25
##########                          Grid_Score:          -28.699957
##########                     Grid_vdw_energy:          -27.843983
##########                      Grid_es_energy:           -0.855974
##########           Internal_energy_repulsive:           64.669312

@<TRIPOS>MOLECULE
ZINC000646817380
 54 56 1 0 0
SMALL
USER_CHARGES


@<TRIPOS>ATOM
      1 C1         -7.5971    0.4090   67.9735 C.3     1  ZINC000646817380   -0.1500
      2 C2         -8.1315    1.5172   67.0639 C.3     1  ZINC000646817380   -0.0100
      3 C3         -6.9954    2.4791   66.7105 C.3     1  ZINC000646817380   -0.1500
      4 C4         -8.6849    0.9079   65.8015 C.2     1  ZINC000646817380   -0.0100
      5 C5         -8.0059    0.6613   64.6583 C.2     1  ZINC000646817380   -0.2200
      6 C6         -8.9810    0.0911   63.7969 C.2     1  ZINC000646817380    0.2400
      7 N7         -8.7886   -0.3434   62.4868 N.am    1  ZINC000646817380   -0.6100
      8 C8         -9.8261   -0.8343   61.7804 C.2     1  ZINC000646817380    0.5200
      9 O9        -10.9281   -0.8968   62.2847 O.2     1  ZINC000646817380   -0.4900
     10 C10        -9.6195   -1.3017   60.3768 C.2     1  ZINC000646817380    0.5300
     11 O11        -8.5027   -1.5693   59.9846 O.2     1  ZINC000646817380   -0.5100
     12 N12       -10.6733   -1.4261   59.5459 N.am    1  ZINC000646817380   -0.5800
     13 C13       -12.0735   -1.1372   59.8887 C.3     1  ZINC000646817380    0.1000
     14 C14       -12.9245   -1.4471   58.6391 C.3     1  ZINC000646817380   -0.1300
     15 C15       -12.0270   -2.4306   57.8426 C.3     1  ZINC000646817380   -0.1000
     16 H16       -12.1337   -3.4484   58.2180 H       1  ZINC000646817380    0.1000
     17 C17       -12.3366   -2.3661   56.3457 C.3     1  ZINC000646817380   -0.0700
     18 H18       -12.6849   -1.3682   56.0794 H       1  ZINC000646817380    0.0800
     19 C19       -11.0766   -2.7213   55.5296 C.3     1  ZINC000646817380   -0.1300
     20 C20       -11.6197   -3.5283   54.3242 C.3     1  ZINC000646817380   -0.1300
     21 C21       -12.7565   -4.3672   54.9590 C.3     1  ZINC000646817380   -0.1200
     22 C22       -13.4057   -3.4117   55.9831 C.3     1  ZINC000646817380   -0.0700
     23 C23       -13.8239   -4.1888   57.2330 C.3     1  ZINC000646817380   -0.1600
     24 C24       -14.6229   -2.7248   55.3606 C.3     1  ZINC000646817380   -0.1400
     25 C25       -10.6121   -1.8684   58.1409 C.3     1  ZINC000646817380    0.0900
     26 N26       -10.0951    0.0553   64.4802 N.2     1  ZINC000646817380   -0.3800
     27 O27        -9.9451    0.4993   65.5948 O.3     1  ZINC000646817380    0.1100
     28 H28        -7.1969    0.8497   68.8865 H       1  ZINC000646817380    0.0700
     29 H29        -8.4065   -0.2763   68.2252 H       1  ZINC000646817380    0.0600
     30 H30        -6.8073   -0.1361   67.4564 H       1  ZINC000646817380    0.0600
     31 H31        -8.9213    2.0622   67.5809 H       1  ZINC000646817380    0.1100
     32 H32        -6.2055    1.9340   66.1934 H       1  ZINC000646817380    0.0600
     33 H33        -7.3760    3.2685   66.0625 H       1  ZINC000646817380    0.0600
     34 H34        -6.5951    2.9197   67.6235 H       1  ZINC000646817380    0.0700
     35 H35        -6.9640    0.8535   64.4486 H       1  ZINC000646817380    0.1900
     36 H36        -7.9080   -0.2923   62.0834 H       1  ZINC000646817380    0.4300
     37 H37       -12.3900   -1.7689   60.7187 H       1  ZINC000646817380    0.0800
     38 H38       -12.1799   -0.0865   60.1583 H       1  ZINC000646817380    0.0800
     39 H39       -13.8636   -1.9236   58.9206 H       1  ZINC000646817380    0.0900
     40 H40       -13.1084   -0.5402   58.0632 H       1  ZINC000646817380    0.0800
     41 H41       -10.5756   -1.8156   55.1877 H       1  ZINC000646817380    0.0700
     42 H42       -10.3974   -3.3332   56.1234 H       1  ZINC000646817380    0.0800
     43 H43       -12.0138   -2.8604   53.5583 H       1  ZINC000646817380    0.0700
     44 H44       -10.8454   -4.1758   53.9125 H       1  ZINC000646817380    0.0700
     45 H45       -13.4817   -4.6626   54.2005 H       1  ZINC000646817380    0.0700
     46 H46       -12.3488   -5.2449   55.4605 H       1  ZINC000646817380    0.0700
     47 H47       -13.0705   -4.9429   57.4609 H       1  ZINC000646817380    0.0700
     48 H48       -13.9162   -3.5016   58.0740 H       1  ZINC000646817380    0.0600
     49 H49       -14.7827   -4.6754   57.0544 H       1  ZINC000646817380    0.0500
     50 H50       -15.3628   -3.4762   55.0849 H       1  ZINC000646817380    0.0600
     51 H51       -15.0584   -2.0336   56.0822 H       1  ZINC000646817380    0.0500
     52 H52       -14.3146   -2.1751   54.4714 H       1  ZINC000646817380    0.0600
     53 H53       -10.3913   -1.0283   57.4825 H       1  ZINC000646817380    0.0900
     54 H54        -9.8613   -2.6499   58.0250 H       1  ZINC000646817380    0.1000
@<TRIPOS>BOND
     1     1     2    1
     2     1    28    1
     3     1    29    1
     4     1    30    1
     5     2     3    1
     6     2     4    1
     7     2    31    1
     8     3    32    1
     9     3    33    1
    10     3    34    1
    11     4    27    1
    12     4     5    2
    13     5     6    1
    14     5    35    1
    15     6     7    1
    16     6    26    2
    17     7     8   am
    18     7    36    1
    19     8     9    2
    20     8    10    1
    21    10    11    2
    22    10    12   am
    23    12    25    1
    24    12    13    1
    25    13    14    1
    26    13    37    1
    27    13    38    1
    28    14    15    1
    29    14    39    1
    30    14    40    1
    31    15    16    1
    32    15    17    1
    33    15    25    1
    34    17    18    1
    35    17    22    1
    36    17    19    1
    37    19    20    1
    38    19    41    1
    39    19    42    1
    40    20    21    1
    41    20    43    1
    42    20    44    1
    43    21    22    1
    44    21    45    1
    45    21    46    1
    46    22    23    1
    47    22    24    1
    48    23    47    1
    49    23    48    1
    50    23    49    1
    51    24    50    1
    52    24    51    1
    53    24    52    1
    54    25    53    1
    55    25    54    1
    56    26    27    1
@<TRIPOS>SUBSTRUCTURE
     1 ZINC000646817380        1 TEMP              0 ****  ****    0 ROOT


##########                                Name:    ZINC001053433946
##########                DOCK_Rotatable_Bonds:                   6
##########                         Heavy_Atoms:                  24
##########                    Molecular_Weight:             337.419
##########                DOCK_Rotatable_Bonds:                   6
##########                       Formal_Charge:               -0.02
##########                     HBond_Acceptors:                   7
##########                        HBond_Donors:                   2
##########                         Heavy_Atoms:                  24
##########                          Grid_Score:          -28.687969
##########                     Grid_vdw_energy:          -24.928724
##########                      Grid_es_energy:           -3.759245
##########           Internal_energy_repulsive:           11.286273

@<TRIPOS>MOLECULE
ZINC001053433946
 51 54 1 0 0
SMALL
USER_CHARGES


@<TRIPOS>ATOM
      1 N1         -1.2906    5.5325   58.2147 N.am    1  ZINC001053433946   -0.8300
      2 C2         -0.3705    4.5693   58.4201 C.2     1  ZINC001053433946    0.5600
      3 O3          0.7879    4.8693   58.6174 O.2     1  ZINC001053433946   -0.5500
      4 C4         -0.7812    3.1194   58.4046 C.3     1  ZINC001053433946   -0.1600
      5 H5         -1.5857    2.8513   59.0894 H       1  ZINC001053433946    0.1400
      6 C6          0.3120    2.0781   58.1569 C.3     1  ZINC001053433946   -0.1300
      7 C7         -0.7179    2.3815   57.0658 C.3     1  ZINC001053433946   -0.1700
      8 H8         -1.4805    1.6277   56.8700 H       1  ZINC001053433946    0.1400
      9 C9         -0.2491    3.1594   55.8634 C.2     1  ZINC001053433946    0.5400
     10 O10         0.9345    3.2249   55.6072 O.2     1  ZINC001053433946   -0.5200
     11 N11        -1.1452    3.7825   55.0725 N.am    1  ZINC001053433946   -0.6100
     12 C12        -2.5864    3.7184   55.3615 C.3     1  ZINC001053433946    0.0700
     13 C13        -3.3211    3.2555   54.0991 C.3     1  ZINC001053433946    0.0500
     14 O14        -2.9686    4.1088   53.0057 O.3     1  ZINC001053433946   -0.3400
     15 C15        -1.5759    4.1192   52.7048 C.3     1  ZINC001053433946    0.0800
     16 C16        -1.0814    2.8374   52.0211 C.3     1  ZINC001053433946   -0.0100
     17 N17        -1.3761    3.5271   50.7446 N.3     1  ZINC001053433946   -0.4700
     18 C18        -0.3038    3.3034   49.7656 C.3     1  ZINC001053433946    0.0200
     19 C19        -0.8530    2.5054   48.5813 C.3     1  ZINC001053433946   -0.1200
     20 H20        -1.9421    2.5493   48.5862 H       1  ZINC001053433946    0.0800
     21 C21        -0.3227    3.1005   47.2732 C.3     1  ZINC001053433946   -0.1200
     22 C22        -0.8156    2.2475   46.1003 C.3     1  ZINC001053433946   -0.1600
     23 C23        -0.3617    0.8000   46.3061 C.3     1  ZINC001053433946    0.0600
     24 O24        -0.8632    0.3178   47.5544 O.3     1  ZINC001053433946   -0.3800
     25 C25        -0.3991    1.0476   48.6920 C.3     1  ZINC001053433946    0.0700
     26 C26        -1.2299    4.8471   51.3991 C.3     1  ZINC001053433946    0.0200
     27 C27        -0.7121    4.5544   53.8946 C.3     1  ZINC001053433946    0.1000
     28 H28        -1.0263    6.4658   58.2258 H       1  ZINC001053433946    0.4000
     29 H29        -2.2161    5.2924   58.0518 H       1  ZINC001053433946    0.4000
     30 H30         1.3283    2.4417   58.0051 H       1  ZINC001053433946    0.1100
     31 H31         0.2265    1.1248   58.6784 H       1  ZINC001053433946    0.1200
     32 H32        -2.7660    3.0094   56.1697 H       1  ZINC001053433946    0.1000
     33 H33        -2.9452    4.7058   55.6520 H       1  ZINC001053433946    0.0800
     34 H34        -3.0346    2.2298   53.8670 H       1  ZINC001053433946    0.0600
     35 H35        -4.3971    3.3039   54.2661 H       1  ZINC001053433946    0.1100
     36 H36        -0.0216    2.6364   52.1777 H       1  ZINC001053433946    0.0800
     37 H37        -1.7127    1.9684   52.2071 H       1  ZINC001053433946    0.0900
     38 H38         0.0727    4.2637   49.4134 H       1  ZINC001053433946    0.0500
     39 H39         0.5062    2.7456   50.2353 H       1  ZINC001053433946    0.0800
     40 H40        -0.6897    4.1208   47.1616 H       1  ZINC001053433946    0.0700
     41 H41         0.7672    3.1034   47.2894 H       1  ZINC001053433946    0.0700
     42 H42        -1.9040    2.2851   46.0546 H       1  ZINC001053433946    0.0700
     43 H43        -0.3976    2.6315   45.1697 H       1  ZINC001053433946    0.0700
     44 H44        -0.7460    0.1800   45.4961 H       1  ZINC001053433946    0.0900
     45 H45         0.7274    0.7576   46.3112 H       1  ZINC001053433946    0.0500
     46 H46         0.6896    1.0092   48.7292 H       1  ZINC001053433946    0.0500
     47 H47        -0.8097    0.6055   49.5998 H       1  ZINC001053433946    0.1000
     48 H48        -1.9791    5.5761   51.0904 H       1  ZINC001053433946    0.1000
     49 H49        -0.2141    5.2413   51.3715 H       1  ZINC001053433946    0.0900
     50 H50        -0.8457    5.6209   54.0761 H       1  ZINC001053433946    0.0800
     51 H51         0.3367    4.3445   53.6846 H       1  ZINC001053433946    0.1000
@<TRIPOS>BOND
     1     1     2   am
     2     1    28    1
     3     1    29    1
     4     2     3    2
     5     2     4    1
     6     4     5    1
     7     4     7    1
     8     4     6    1
     9     6     7    1
    10     6    30    1
    11     6    31    1
    12     7     8    1
    13     7     9    1
    14     9    10    2
    15     9    11   am
    16    11    27    1
    17    11    12    1
    18    12    13    1
    19    12    32    1
    20    12    33    1
    21    13    14    1
    22    13    34    1
    23    13    35    1
    24    14    15    1
    25    15    26    1
    26    15    16    1
    27    15    27    1
    28    16    17    1
    29    16    36    1
    30    16    37    1
    31    17    18    1
    32    17    26    1
    33    18    19    1
    34    18    38    1
    35    18    39    1
    36    19    20    1
    37    19    25    1
    38    19    21    1
    39    21    22    1
    40    21    40    1
    41    21    41    1
    42    22    23    1
    43    22    42    1
    44    22    43    1
    45    23    24    1
    46    23    44    1
    47    23    45    1
    48    24    25    1
    49    25    46    1
    50    25    47    1
    51    26    48    1
    52    26    49    1
    53    27    50    1
    54    27    51    1
@<TRIPOS>SUBSTRUCTURE
     1 ZINC001053433946        1 TEMP              0 ****  ****    0 ROOT


##########                                Name:    ZINC001310073555
##########                DOCK_Rotatable_Bonds:                  12
##########                         Heavy_Atoms:                  27
##########                    Molecular_Weight:             380.484
##########                DOCK_Rotatable_Bonds:                  12
##########                       Formal_Charge:          0.00999888
##########                     HBond_Acceptors:                   7
##########                        HBond_Donors:                   2
##########                         Heavy_Atoms:                  27
##########                          Grid_Score:          -28.682787
##########                     Grid_vdw_energy:          -26.954794
##########                      Grid_es_energy:           -1.727993
##########           Internal_energy_repulsive:           47.922531

@<TRIPOS>MOLECULE
ZINC001310073555
 59 59 1 0 0
SMALL
USER_CHARGES


@<TRIPOS>ATOM
      1 C1          2.6120   -0.0680   46.6391 C.3     1  ZINC001310073555   -0.1600
      2 C2          1.2075    0.1057   47.2205 C.3     1  ZINC001310073555   -0.1100
      3 C3          1.1512    1.3959   48.0410 C.3     1  ZINC001310073555   -0.0600
      4 C4          1.7303    2.5489   47.2187 C.3     1  ZINC001310073555   -0.1100
      5 C5          0.9734    2.6609   45.8938 C.3     1  ZINC001310073555   -0.1600
      6 C6         -0.3024    1.7073   48.4028 C.3     1  ZINC001310073555    0.1600
      7 N7         -0.4925    1.5421   49.8459 N.am    1  ZINC001310073555   -0.7400
      8 C8         -1.6041    2.0218   50.4384 C.2     1  ZINC001310073555    0.7100
      9 O9         -2.4497    2.5903   49.7749 O.2     1  ZINC001310073555   -0.5700
     10 N10        -1.7783    1.8712   51.7664 N.am    1  ZINC001310073555   -0.6700
     11 C11        -2.9359    2.3708   52.3835 C.ar    1  ZINC001310073555    0.1000
     12 C12        -4.1828    1.8955   52.0074 C.ar    1  ZINC001310073555   -0.0400
     13 C13        -5.3228    2.3874   52.6150 C.ar    1  ZINC001310073555   -0.2200
     14 C14        -5.2223    3.3563   53.6020 C.ar    1  ZINC001310073555    0.1500
     15 O15        -6.3455    3.8381   54.1978 O.3     1  ZINC001310073555   -0.3200
     16 C16        -6.6966    3.2817   55.4663 C.3     1  ZINC001310073555    0.0300
     17 C17        -3.9767    3.8342   53.9823 C.ar    1  ZINC001310073555   -0.2300
     18 C18        -2.8327    3.3403   53.3785 C.ar    1  ZINC001310073555    0.1400
     19 O19        -1.6108    3.8075   53.7498 O.3     1  ZINC001310073555   -0.3100
     20 C20        -1.2978    3.7694   55.1436 C.3     1  ZINC001310073555    0.0300
     21 C21         1.9573    1.2244   49.3027 C.2     1  ZINC001310073555    0.4800
     22 O22         2.1310    0.1209   49.7633 O.2     1  ZINC001310073555   -0.5000
     23 O23         2.4824    2.2973   49.9148 O.3     1  ZINC001310073555   -0.3400
     24 C24         3.7661    2.1201   50.5698 C.3     1  ZINC001310073555    0.1200
     25 C25         4.7021    1.3308   49.6524 C.3     1  ZINC001310073555   -0.1800
     26 C26         4.3797    3.4895   50.8683 C.3     1  ZINC001310073555   -0.1400
     27 C27         3.5690    1.3532   51.8790 C.3     1  ZINC001310073555   -0.1800
     28 H28         2.6521   -0.9872   46.0546 H       1  ZINC001310073555    0.0600
     29 H29         2.8473    0.7811   45.9974 H       1  ZINC001310073555    0.0500
     30 H30         3.3372   -0.1219   47.4510 H       1  ZINC001310073555    0.0600
     31 H31         0.4822    0.1595   46.4086 H       1  ZINC001310073555    0.0800
     32 H32         0.9723   -0.7435   47.8622 H       1  ZINC001310073555    0.0800
     33 H33         1.6275    3.4801   47.7758 H       1  ZINC001310073555    0.0800
     34 H34         2.7851    2.3592   47.0197 H       1  ZINC001310073555    0.0800
     35 H35         1.0764    1.7297   45.3367 H       1  ZINC001310073555    0.0600
     36 H36        -0.0814    2.8506   46.0928 H       1  ZINC001310073555    0.0500
     37 H37         1.3860    3.4822   45.3079 H       1  ZINC001310073555    0.0600
     38 H38        -0.5350    2.7341   48.1208 H       1  ZINC001310073555    0.0800
     39 H39        -0.9638    1.0251   47.8687 H       1  ZINC001310073555    0.0800
     40 H40         0.1814    1.0875   50.3751 H       1  ZINC001310073555    0.4000
     41 H41        -1.1037    1.4178   52.2957 H       1  ZINC001310073555    0.4100
     42 H42        -4.2635    1.1409   51.2390 H       1  ZINC001310073555    0.1500
     43 H43        -6.2935    2.0166   52.3204 H       1  ZINC001310073555    0.1300
     44 H44        -6.8583    2.2090   55.3603 H       1  ZINC001310073555    0.0600
     45 H45        -5.8892    3.4590   56.1768 H       1  ZINC001310073555    0.0600
     46 H46        -7.6100    3.7528   55.8294 H       1  ZINC001310073555    0.1000
     47 H47        -3.8993    4.5888   54.7509 H       1  ZINC001310073555    0.1400
     48 H48        -0.2967    4.1699   55.3023 H       1  ZINC001310073555    0.1000
     49 H49        -2.0211    4.3703   55.6949 H       1  ZINC001310073555    0.0600
     50 H50        -1.3372    2.7390   55.4969 H       1  ZINC001310073555    0.0600
     51 H51         4.8425    1.8771   48.7197 H       1  ZINC001310073555    0.0600
     52 H52         5.6658    1.1977   50.1441 H       1  ZINC001310073555    0.0700
     53 H53         4.2649    0.3552   49.4397 H       1  ZINC001310073555    0.0800
     54 H54         3.7128    4.0517   51.5219 H       1  ZINC001310073555    0.0700
     55 H55         5.3434    3.3564   51.3600 H       1  ZINC001310073555    0.0800
     56 H56         4.5201    4.0358   49.9357 H       1  ZINC001310073555    0.0700
     57 H57         3.1318    0.3776   51.6664 H       1  ZINC001310073555    0.0800
     58 H58         4.5326    1.2202   52.3708 H       1  ZINC001310073555    0.0700
     59 H59         2.9022    1.9155   52.5327 H       1  ZINC001310073555    0.0600
@<TRIPOS>BOND
     1     1     2    1
     2     1    28    1
     3     1    29    1
     4     1    30    1
     5     2     3    1
     6     2    31    1
     7     2    32    1
     8     3     4    1
     9     3     6    1
    10     3    21    1
    11     4     5    1
    12     4    33    1
    13     4    34    1
    14     5    35    1
    15     5    36    1
    16     5    37    1
    17     6     7    1
    18     6    38    1
    19     6    39    1
    20     7     8   am
    21     7    40    1
    22     8     9    2
    23     8    10   am
    24    10    11    1
    25    10    41    1
    26    11    18   ar
    27    11    12   ar
    28    12    13   ar
    29    12    42    1
    30    13    14   ar
    31    13    43    1
    32    14    15    1
    33    14    17   ar
    34    15    16    1
    35    16    44    1
    36    16    45    1
    37    16    46    1
    38    17    18   ar
    39    17    47    1
    40    18    19    1
    41    19    20    1
    42    20    48    1
    43    20    49    1
    44    20    50    1
    45    21    22    2
    46    21    23    1
    47    23    24    1
    48    24    25    1
    49    24    26    1
    50    24    27    1
    51    25    51    1
    52    25    52    1
    53    25    53    1
    54    26    54    1
    55    26    55    1
    56    26    56    1
    57    27    57    1
    58    27    58    1
    59    27    59    1
@<TRIPOS>SUBSTRUCTURE
     1 ZINC001310073555        1 TEMP              0 ****  ****    0 ROOT


##########                                Name:    ZINC000285228948
##########                DOCK_Rotatable_Bonds:                   8
##########                         Heavy_Atoms:                  23
##########                    Molecular_Weight:             339.822
##########                DOCK_Rotatable_Bonds:                   8
##########                       Formal_Charge:           0.0299997
##########                     HBond_Acceptors:                   7
##########                        HBond_Donors:                   3
##########                         Heavy_Atoms:                  23
##########                          Grid_Score:          -28.678337
##########                     Grid_vdw_energy:          -23.223545
##########                      Grid_es_energy:           -5.454793
##########           Internal_energy_repulsive:           19.580408

@<TRIPOS>MOLECULE
ZINC000285228948
 45 46 1 0 0
SMALL
USER_CHARGES


@<TRIPOS>ATOM
      1 C1         -0.5217   -0.0247   47.4087 C.3     1  <0>        -0.1600
      2 C2         -0.7856    1.4664   47.6277 C.3     1  <0>         0.1800
      3 H3         -1.8052    1.7034   47.3237 H       1  <0>         0.1100
      4 C4          0.1846    2.2743   46.8050 C.ar    1  <0>        -0.0900
      5 C5          1.1676    1.6361   46.0718 C.ar    1  <0>        -0.1000
      6 C6          2.0577    2.3765   45.3170 C.ar    1  <0>        -0.1100
      7 C7          1.9649    3.7567   45.2953 C.ar    1  <0>        -0.0300
      8 Cl8         3.0822    4.6874   44.3471 Cl      1  <0>        -0.0700
      9 C9          0.9810    4.3950   46.0293 C.ar    1  <0>        -0.1100
     10 C10         0.0878    3.6531   46.7792 C.ar    1  <0>        -0.0900
     11 N11        -0.6110    1.7900   49.0458 N.am    1  <0>        -0.6100
     12 C12         0.7358    1.9067   49.6101 C.3     1  <0>         0.0600
     13 C13        -1.6896    1.9804   49.8313 C.2     1  <0>         0.5200
     14 O14        -2.8047    1.8854   49.3637 O.2     1  <0>        -0.5200
     15 C15        -1.5102    2.3116   51.2904 C.3     1  <0>         0.0300
     16 N16        -2.7227    2.9690   51.7960 N.3     1  <0>        -0.4900
     17 C17        -2.4770    4.4104   52.0573 C.3     1  <0>         0.0400
     18 C18        -3.6160    4.7925   53.0357 C.3     1  <0>        -0.1400
     19 C19        -3.7447    3.5343   53.9247 C.3     1  <0>         0.1100
     20 O20        -3.0103    3.7072   55.1383 O.3     1  <0>        -0.5400
     21 C21        -5.1941    3.2534   54.2270 C.2     1  <0>         0.5000
     22 N22        -5.6247    3.2346   55.5039 N.am    1  <0>        -0.8500
     23 O23        -5.9730    3.0443   53.3211 O.2     1  <0>        -0.5200
     24 C24        -3.1387    2.3896   53.0917 C.3     1  <0>         0.0600
     25 H25        -0.6516   -0.2655   46.3536 H       1  <0>         0.0700
     26 H26         0.4979   -0.2618   47.7127 H       1  <0>         0.0600
     27 H27        -1.2234   -0.6091   48.0038 H       1  <0>         0.0700
     28 H28         1.2402    0.5587   46.0891 H       1  <0>         0.1400
     29 H29         2.8258    1.8777   44.7445 H       1  <0>         0.1300
     30 H30         0.9082    5.4723   46.0130 H       1  <0>         0.1400
     31 H31        -0.6805    4.1512   47.3519 H       1  <0>         0.1300
     32 H32         1.0961    2.9275   49.4824 H       1  <0>         0.0600
     33 H33         0.7074    1.6616   50.6719 H       1  <0>         0.0800
     34 H34         1.4061    1.2178   49.0961 H       1  <0>         0.0800
     35 H35        -1.3331    1.3943   51.8520 H       1  <0>         0.1100
     36 H36        -0.6578    2.9805   51.4090 H       1  <0>         0.0700
     37 H37        -1.5032    4.5562   52.5247 H       1  <0>         0.0400
     38 H38        -2.5524    4.9868   51.1351 H       1  <0>         0.1200
     39 H39        -3.3363    5.6601   53.6333 H       1  <0>         0.0900
     40 H40        -4.5435    4.9787   52.4942 H       1  <0>         0.0900
     41 H41        -3.4999    3.4560   55.9335 H       1  <0>         0.3800
     42 H42        -6.5574    3.0527   55.6986 H       1  <0>         0.4000
     43 H43        -5.0020    3.4030   56.2283 H       1  <0>         0.4100
     44 H44        -3.8861    1.6132   52.9284 H       1  <0>         0.1100
     45 H45        -2.2732    1.9731   53.6072 H       1  <0>         0.0700
@<TRIPOS>BOND
     1     1     2    1
     2     1    25    1
     3     1    26    1
     4     1    27    1
     5     2     3    1
     6     2     4    1
     7     2    11    1
     8     4    10   ar
     9     4     5   ar
    10     5     6   ar
    11     5    28    1
    12     6     7   ar
    13     6    29    1
    14     7     8    1
    15     7     9   ar
    16     9    10   ar
    17     9    30    1
    18    10    31    1
    19    11    12    1
    20    11    13   am
    21    12    32    1
    22    12    33    1
    23    12    34    1
    24    13    14    2
    25    13    15    1
    26    15    16    1
    27    15    35    1
    28    15    36    1
    29    16    24    1
    30    16    17    1
    31    17    18    1
    32    17    37    1
    33    17    38    1
    34    18    19    1
    35    18    39    1
    36    18    40    1
    37    19    20    1
    38    19    21    1
    39    19    24    1
    40    20    41    1
    41    21    22   am
    42    21    23    2
    43    22    42    1
    44    22    43    1
    45    24    44    1
    46    24    45    1
@<TRIPOS>SUBSTRUCTURE
     1 <0>         1 TEMP              0 ****  ****    0 ROOT


##########                                Name:    ZINC000081577146
##########                DOCK_Rotatable_Bonds:                   4
##########                         Heavy_Atoms:                  25
##########                    Molecular_Weight:             355.464
##########                DOCK_Rotatable_Bonds:                   4
##########                       Formal_Charge:                0.02
##########                     HBond_Acceptors:                   7
##########                        HBond_Donors:                   0
##########                         Heavy_Atoms:                  25
##########                          Grid_Score:          -28.649677
##########                     Grid_vdw_energy:          -28.208155
##########                      Grid_es_energy:           -0.441523
##########           Internal_energy_repulsive:           12.057114

@<TRIPOS>MOLECULE
ZINC000081577146
 46 49 1 0 0
SMALL
USER_CHARGES


@<TRIPOS>ATOM
      1 C1          2.4168    6.4238   41.2321 C.3     1  ZINC000081577146   -0.0700
      2 C2          2.1696    6.4136   42.7187 C.2     1  ZINC000081577146    0.2900
      3 N3          2.2272    7.5104   43.4164 N.2     1  ZINC000081577146   -0.4800
      4 S4          1.8910    7.0562   45.0193 S.3     1  ZINC000081577146    0.1900
      5 C5          1.6889    5.3855   44.6491 C.2     1  ZINC000081577146    0.2700
      6 N6          1.3827    4.3601   45.5253 N.3     1  ZINC000081577146   -0.4300
      7 C7          2.3167    3.2365   45.3681 C.3     1  ZINC000081577146    0.0700
      8 C8          1.9942    2.1594   46.4064 C.3     1  ZINC000081577146    0.0500
      9 N9          0.6049    1.7139   46.2309 N.3     1  ZINC000081577146   -0.5200
     10 C10         0.2796    0.6248   47.1615 C.3     1  ZINC000081577146    0.1900
     11 H11         1.1020   -0.0901   47.1859 H       1  ZINC000081577146    0.0700
     12 C12        -0.9956   -0.0805   46.6954 C.3     1  ZINC000081577146   -0.1500
     13 C13         0.0649    1.1906   48.5416 C.2     1  ZINC000081577146    0.1900
     14 N14         1.0055    1.5971   49.3476 N.2     1  ZINC000081577146   -0.4500
     15 C15         0.4443    2.0356   50.4843 C.2     1  ZINC000081577146   -0.0200
     16 C16        -0.8996    1.8874   50.3603 C.2     1  ZINC000081577146    0.0000
     17 C17        -1.9216    2.2391   51.3688 C.ar    1  ZINC000081577146   -0.0200
     18 C18        -3.2323    1.7805   51.2278 C.ar    1  ZINC000081577146   -0.1000
     19 C19        -4.1812    2.1120   52.1729 C.ar    1  ZINC000081577146   -0.1200
     20 C20        -3.8360    2.8974   53.2583 C.ar    1  ZINC000081577146   -0.1100
     21 C21        -2.5387    3.3555   53.4037 C.ar    1  ZINC000081577146   -0.1100
     22 C22        -1.5787    3.0263   52.4691 C.ar    1  ZINC000081577146   -0.0900
     23 O23        -1.1239    1.3622   49.1357 O.3     1  ZINC000081577146   -0.2000
     24 C24        -0.3293    2.8375   46.3881 C.3     1  ZINC000081577146    0.0600
     25 C25        -0.0067    3.9147   45.3498 C.3     1  ZINC000081577146    0.0500
     26 N26         1.8841    5.2986   43.3502 N.2     1  ZINC000081577146   -0.5400
     27 H27         1.4753    6.5890   40.7084 H       1  ZINC000081577146    0.0900
     28 H28         3.1150    7.2236   40.9853 H       1  ZINC000081577146    0.0900
     29 H29         2.8389    5.4661   40.9274 H       1  ZINC000081577146    0.0900
     30 H30         2.2168    2.8179   44.3667 H       1  ZINC000081577146    0.0700
     31 H31         3.3377    3.5891   45.5150 H       1  ZINC000081577146    0.1100
     32 H32         2.6672    1.3124   46.2729 H       1  ZINC000081577146    0.1000
     33 H33         2.1206    2.5703   47.4081 H       1  ZINC000081577146    0.0600
     34 H34        -1.8180    0.6344   46.6711 H       1  ZINC000081577146    0.0800
     35 H35        -0.8403   -0.4897   45.6971 H       1  ZINC000081577146    0.0800
     36 H36        -1.2370   -0.8886   47.3859 H       1  ZINC000081577146    0.0700
     37 H37         0.9662    2.4339   51.3418 H       1  ZINC000081577146    0.1900
     38 H38        -3.5032    1.1679   50.3806 H       1  ZINC000081577146    0.1300
     39 H39        -5.1958    1.7578   52.0650 H       1  ZINC000081577146    0.1300
     40 H40        -4.5827    3.1543   53.9951 H       1  ZINC000081577146    0.1300
     41 H41        -2.2759    3.9689   54.2529 H       1  ZINC000081577146    0.1300
     42 H42        -0.5663    3.3842   52.5840 H       1  ZINC000081577146    0.1300
     43 H43        -1.3501    2.4849   46.2412 H       1  ZINC000081577146    0.0900
     44 H44        -0.2293    3.2562   47.3896 H       1  ZINC000081577146    0.0500
     45 H45        -0.6798    4.7616   45.4833 H       1  ZINC000081577146    0.1000
     46 H46        -0.1330    3.5037   44.3482 H       1  ZINC000081577146    0.0800
@<TRIPOS>BOND
     1     1     2    1
     2     1    27    1
     3     1    28    1
     4     1    29    1
     5     2    26    1
     6     2     3    2
     7     3     4    1
     8     4     5    1
     9     5     6    1
    10     5    26    2
    11     6    25    1
    12     6     7    1
    13     7     8    1
    14     7    30    1
    15     7    31    1
    16     8     9    1
    17     8    32    1
    18     8    33    1
    19     9    10    1
    20     9    24    1
    21    10    11    1
    22    10    12    1
    23    10    13    1
    24    12    34    1
    25    12    35    1
    26    12    36    1
    27    13    23    1
    28    13    14    2
    29    14    15    1
    30    15    16    2
    31    15    37    1
    32    16    17    1
    33    16    23    1
    34    17    22   ar
    35    17    18   ar
    36    18    19   ar
    37    18    38    1
    38    19    20   ar
    39    19    39    1
    40    20    21   ar
    41    20    40    1
    42    21    22   ar
    43    21    41    1
    44    22    42    1
    45    24    25    1
    46    24    43    1
    47    24    44    1
    48    25    45    1
    49    25    46    1
@<TRIPOS>SUBSTRUCTURE
     1 ZINC000081577146        1 TEMP              0 ****  ****    0 ROOT


##########                                Name:    ZINC000817655807
##########                DOCK_Rotatable_Bonds:                   3
##########                         Heavy_Atoms:                  24
##########                    Molecular_Weight:             352.774
##########                DOCK_Rotatable_Bonds:                   3
##########                       Formal_Charge:         3.35276e-07
##########                     HBond_Acceptors:                   8
##########                        HBond_Donors:                   0
##########                         Heavy_Atoms:                  24
##########                          Grid_Score:          -28.647400
##########                     Grid_vdw_energy:          -27.001543
##########                      Grid_es_energy:           -1.645856
##########           Internal_energy_repulsive:            2.529112

@<TRIPOS>MOLECULE
ZINC000817655807
 41 44 1 0 0
SMALL
USER_CHARGES


@<TRIPOS>ATOM
      1 C1         -9.9165   -0.8929   60.9580 C.3     1  ZINC000817655807    0.1100
      2 N2        -10.7511   -1.5756   59.9661 N.am    1  ZINC000817655807   -0.6400
      3 C3        -10.4166   -1.7556   58.5420 C.3     1  ZINC000817655807    0.1000
      4 C4        -11.6221   -2.5231   57.9917 C.3     1  ZINC000817655807    0.0500
      5 C5        -12.2526   -1.9497   56.7226 C.3     1  ZINC000817655807    0.1200
      6 N6        -11.3854   -2.8989   55.9939 N.am    1  ZINC000817655807   -0.6500
      7 C7        -10.8772   -2.9451   54.7464 C.2     1  ZINC000817655807    0.5500
      8 O8        -10.1749   -3.8755   54.4118 O.2     1  ZINC000817655807   -0.5100
      9 C9        -11.1818   -1.8407   53.7673 C.3     1  ZINC000817655807   -0.0900
     10 C10        -9.9540   -0.9887   53.5732 C.ar    1  ZINC000817655807   -0.0600
     11 C11        -9.1077   -1.2310   52.5076 C.ar    1  ZINC000817655807   -0.0900
     12 C12        -7.9786   -0.4524   52.3275 C.ar    1  ZINC000817655807   -0.0300
     13 Cl13       -6.9176   -0.7598   50.9884 Cl      1  ZINC000817655807   -0.0500
     14 C14        -7.6937    0.5744   53.2163 C.ar    1  ZINC000817655807    0.0600
     15 O15        -6.5748    1.3273   53.0311 O.3     1  ZINC000817655807   -0.2900
     16 C16        -6.5198    2.5794   53.7236 C.3     1  ZINC000817655807    0.0200
     17 C17        -6.9554    2.3447   55.1764 C.3     1  ZINC000817655807    0.0200
     18 O18        -8.2894    1.8248   55.1660 O.3     1  ZINC000817655807   -0.3000
     19 C19        -8.5472    0.8197   54.2852 C.ar    1  ZINC000817655807    0.0600
     20 C20        -9.6794    0.0373   54.4578 C.ar    1  ZINC000817655807   -0.0900
     21 C21       -11.2973   -3.7769   57.1793 C.3     1  ZINC000817655807    0.1100
     22 O22       -12.5045   -2.7019   59.1236 O.3     1  ZINC000817655807   -0.3000
     23 C23       -11.9422   -2.1443   60.2065 C.2     1  ZINC000817655807    0.6400
     24 O24       -12.4669   -2.1475   61.3026 O.2     1  ZINC000817655807   -0.5100
     25 H25       -10.4128   -0.9163   61.9283 H       1  ZINC000817655807    0.0900
     26 H26        -8.9527   -1.3969   61.0307 H       1  ZINC000817655807    0.0700
     27 H27        -9.7632    0.1423   60.6532 H       1  ZINC000817655807    0.0700
     28 H28       -10.3161   -0.7903   58.0456 H       1  ZINC000817655807    0.1000
     29 H29        -9.5045   -2.3422   58.4323 H       1  ZINC000817655807    0.1000
     30 H30       -13.3172   -2.1622   56.6252 H       1  ZINC000817655807    0.1100
     31 H31       -12.0075   -0.9028   56.5435 H       1  ZINC000817655807    0.1000
     32 H32       -11.4786   -2.2735   52.8121 H       1  ZINC000817655807    0.1100
     33 H33       -11.9935   -1.2251   54.1551 H       1  ZINC000817655807    0.1100
     34 H34        -9.3281   -2.0295   51.8147 H       1  ZINC000817655807    0.1400
     35 H35        -5.5010    2.9661   53.7033 H       1  ZINC000817655807    0.1300
     36 H36        -7.1938    3.2922   53.2485 H       1  ZINC000817655807    0.0800
     37 H37        -6.2851    1.6273   55.6499 H       1  ZINC000817655807    0.0800
     38 H38        -6.9324    3.2870   55.7238 H       1  ZINC000817655807    0.1300
     39 H39       -10.3451    0.2274   55.2867 H       1  ZINC000817655807    0.1400
     40 H40       -10.2980   -4.1726   57.3609 H       1  ZINC000817655807    0.1000
     41 H41       -12.0735   -4.5411   57.2199 H       1  ZINC000817655807    0.1100
@<TRIPOS>BOND
     1     1     2    1
     2     1    25    1
     3     1    26    1
     4     1    27    1
     5     2    23   am
     6     2     3    1
     7     3     4    1
     8     3    28    1
     9     3    29    1
    10     4    21    1
    11     4     5    1
    12     4    22    1
    13     5     6    1
    14     5    30    1
    15     5    31    1
    16     6     7   am
    17     6    21    1
    18     7     8    2
    19     7     9    1
    20     9    10    1
    21     9    32    1
    22     9    33    1
    23    10    20   ar
    24    10    11   ar
    25    11    12   ar
    26    11    34    1
    27    12    13    1
    28    12    14   ar
    29    14    19   ar
    30    14    15    1
    31    15    16    1
    32    16    17    1
    33    16    35    1
    34    16    36    1
    35    17    18    1
    36    17    37    1
    37    17    38    1
    38    18    19    1
    39    19    20   ar
    40    20    39    1
    41    21    40    1
    42    21    41    1
    43    22    23    1
    44    23    24    2
@<TRIPOS>SUBSTRUCTURE
     1 ZINC000817655807        1 TEMP              0 ****  ****    0 ROOT


##########                                Name:    ZINC000623581528
##########                DOCK_Rotatable_Bonds:                   5
##########                         Heavy_Atoms:                  26
##########                    Molecular_Weight:             355.369
##########                DOCK_Rotatable_Bonds:                   5
##########                       Formal_Charge:        -4.47035e-07
##########                     HBond_Acceptors:                   7
##########                        HBond_Donors:                   2
##########                         Heavy_Atoms:                  26
##########                          Grid_Score:          -28.607294
##########                     Grid_vdw_energy:          -27.959124
##########                      Grid_es_energy:           -0.648170
##########           Internal_energy_repulsive:            6.322441

@<TRIPOS>MOLECULE
ZINC000623581528
 44 47 1 0 0
SMALL
USER_CHARGES


@<TRIPOS>ATOM
      1 C1        -11.2328   -4.7034   57.2431 C.3     1  ZINC000623581528    0.1000
      2 N2        -12.3998   -4.4277   56.4013 N.am    1  ZINC000623581528   -0.5500
      3 C3        -13.6877   -4.6596   56.7236 C.2     1  ZINC000623581528    0.6300
      4 O4        -14.0738   -5.1373   57.7729 O.2     1  ZINC000623581528   -0.4800
      5 O5        -14.4781   -4.2815   55.7067 O.3     1  ZINC000623581528   -0.2300
      6 C6        -13.7091   -3.7950   54.7019 C.ar    1  ZINC000623581528    0.0400
      7 C7        -14.0048   -3.2801   53.4499 C.ar    1  ZINC000623581528   -0.0800
      8 C8        -12.9846   -2.8513   52.6226 C.ar    1  ZINC000623581528   -0.0900
      9 C9        -11.6674   -2.9339   53.0380 C.ar    1  ZINC000623581528   -0.0900
     10 C10       -10.5617   -2.4636   52.1283 C.3     1  ZINC000623581528    0.1800
     11 N11       -10.4965   -1.0003   52.1550 N.am    1  ZINC000623581528   -0.7400
     12 C12        -9.3050   -0.3771   52.0639 C.2     1  ZINC000623581528    0.7100
     13 O13        -8.2840   -1.0293   51.9610 O.2     1  ZINC000623581528   -0.5800
     14 N14        -9.2452    0.9691   52.0869 N.am    1  ZINC000623581528   -0.7300
     15 C15        -7.9501    1.6466   51.9860 C.3     1  ZINC000623581528    0.2000
     16 H16        -7.4338    1.3408   51.0761 H       1  ZINC000623581528    0.1000
     17 C17        -7.0838    1.3331   53.2244 C.3     1  ZINC000623581528   -0.1300
     18 C18        -7.4216    2.5049   54.1704 C.3     1  ZINC000623581528   -0.0800
     19 C19        -7.8362    3.6416   53.2607 C.ar    1  ZINC000623581528   -0.1000
     20 C20        -7.9394    4.9995   53.5121 C.ar    1  ZINC000623581528   -0.0800
     21 C21        -8.3441    5.8631   52.5133 C.ar    1  ZINC000623581528   -0.1400
     22 C22        -8.6484    5.3702   51.2560 C.ar    1  ZINC000623581528    0.0900
     23 F23        -9.0442    6.2124   50.2765 F       1  ZINC000623581528   -0.1400
     24 C24        -8.5461    4.0135   51.0040 C.ar    1  ZINC000623581528   -0.1200
     25 C25        -8.1402    3.1482   52.0026 C.ar    1  ZINC000623581528   -0.0900
     26 C26       -11.3628   -3.4459   54.2847 C.ar    1  ZINC000623581528   -0.0800
     27 C27       -12.3811   -3.8718   55.1224 C.ar    1  ZINC000623581528    0.0700
     28 H28       -11.0154   -3.8313   57.8597 H       1  ZINC000623581528    0.0800
     29 H29       -11.4420   -5.5592   57.8851 H       1  ZINC000623581528    0.0900
     30 H30       -10.3730   -4.9250   56.6109 H       1  ZINC000623581528    0.0900
     31 H31       -15.0314   -3.2143   53.1210 H       1  ZINC000623581528    0.1500
     32 H32       -13.2164   -2.4503   51.6470 H       1  ZINC000623581528    0.1500
     33 H33        -9.6116   -2.8760   52.4679 H       1  ZINC000623581528    0.0800
     34 H34       -10.7608   -2.7999   51.1107 H       1  ZINC000623581528    0.0800
     35 H35       -11.3109   -0.4800   52.2383 H       1  ZINC000623581528    0.4000
     36 H36       -10.0595    1.4895   52.1702 H       1  ZINC000623581528    0.4000
     37 H37        -7.3733    0.3808   53.6686 H       1  ZINC000623581528    0.0900
     38 H38        -6.0247    1.3359   52.9670 H       1  ZINC000623581528    0.0900
     39 H39        -8.2431    2.2316   54.8327 H       1  ZINC000623581528    0.0800
     40 H40        -6.5438    2.7867   54.7518 H       1  ZINC000623581528    0.0800
     41 H41        -7.7021    5.3846   54.4927 H       1  ZINC000623581528    0.1300
     42 H42        -8.4234    6.9215   52.7129 H       1  ZINC000623581528    0.1400
     43 H43        -8.7834    3.6286   50.0233 H       1  ZINC000623581528    0.1400
     44 H44       -10.3341   -3.5096   54.6073 H       1  ZINC000623581528    0.1400
@<TRIPOS>BOND
     1     1     2    1
     2     1    28    1
     3     1    29    1
     4     1    30    1
     5     2    27    1
     6     2     3   am
     7     3     4    2
     8     3     5    1
     9     5     6    1
    10     6    27   ar
    11     6     7   ar
    12     7     8   ar
    13     7    31    1
    14     8     9   ar
    15     8    32    1
    16     9    10    1
    17     9    26   ar
    18    10    11    1
    19    10    33    1
    20    10    34    1
    21    11    12   am
    22    11    35    1
    23    12    13    2
    24    12    14   am
    25    14    15    1
    26    14    36    1
    27    15    16    1
    28    15    25    1
    29    15    17    1
    30    17    18    1
    31    17    37    1
    32    17    38    1
    33    18    19    1
    34    18    39    1
    35    18    40    1
    36    19    25   ar
    37    19    20   ar
    38    20    21   ar
    39    20    41    1
    40    21    22   ar
    41    21    42    1
    42    22    23    1
    43    22    24   ar
    44    24    25   ar
    45    24    43    1
    46    26    27   ar
    47    26    44    1
@<TRIPOS>SUBSTRUCTURE
     1 ZINC000623581528        1 TEMP              0 ****  ****    0 ROOT


##########                                Name:    ZINC000245764166
##########                DOCK_Rotatable_Bonds:                   8
##########                         Heavy_Atoms:                  26
##########                    Molecular_Weight:             359.512
##########                DOCK_Rotatable_Bonds:                   8
##########                       Formal_Charge:          -0.0100008
##########                     HBond_Acceptors:                   5
##########                        HBond_Donors:                   2
##########                         Heavy_Atoms:                  26
##########                          Grid_Score:          -28.600092
##########                     Grid_vdw_energy:          -27.991425
##########                      Grid_es_energy:           -0.608668
##########           Internal_energy_repulsive:           31.803085

@<TRIPOS>MOLECULE
ZINC000245764166
 59 61 1 0 0
SMALL
USER_CHARGES


@<TRIPOS>ATOM
      1 C1         -2.3854    3.2083   55.6854 C.3     1  ZINC000245764166    0.0200
      2 N2         -1.9530    4.0590   54.5685 N.3     1  ZINC000245764166   -0.5300
      3 C3         -0.7303    4.7973   54.9118 C.3     1  ZINC000245764166    0.0600
      4 C4          0.3781    3.8213   55.2122 C.ar    1  ZINC000245764166   -0.0800
      5 C5          1.2488    3.4347   54.2105 C.ar    1  ZINC000245764166   -0.1000
      6 C6          2.2655    2.5395   54.4859 C.ar    1  ZINC000245764166   -0.1200
      7 C7          2.4118    2.0313   55.7631 C.ar    1  ZINC000245764166   -0.1200
      8 C8          1.5417    2.4186   56.7650 C.ar    1  ZINC000245764166   -0.1200
      9 C9          0.5276    3.3171   56.4906 C.ar    1  ZINC000245764166   -0.1200
     10 C10        -1.7639    3.2668   53.3460 C.3     1  ZINC000245764166    0.0500
     11 C11        -2.8592    3.6172   52.3367 C.3     1  ZINC000245764166    0.1900
     12 C12        -3.8632    2.4658   52.2534 C.3     1  ZINC000245764166   -0.1600
     13 C13        -3.5790    4.8900   52.7866 C.3     1  ZINC000245764166   -0.1500
     14 N14        -2.2572    3.8364   51.0193 N.am    1  ZINC000245764166   -0.7400
     15 C15        -1.4422    2.9041   50.4871 C.2     1  ZINC000245764166    0.7000
     16 O16        -1.2055    1.8817   51.1011 O.2     1  ZINC000245764166   -0.5800
     17 N17        -0.8897    3.1051   49.2743 N.am    1  ZINC000245764166   -0.7500
     18 C18        -0.0025    2.0924   48.6968 C.3     1  ZINC000245764166    0.1800
     19 H19        -0.3182    1.1049   49.0334 H       1  ZINC000245764166    0.0900
     20 C20         1.4271    2.3501   49.1663 C.3     1  ZINC000245764166   -0.1300
     21 C21         2.3326    1.2491   48.6036 C.3     1  ZINC000245764166   -0.1100
     22 C22         2.3215    1.3496   47.0784 C.3     1  ZINC000245764166   -0.1100
     23 C23         0.9239    1.1938   46.5265 C.3     1  ZINC000245764166    0.0900
     24 H24         0.9419    1.3880   45.4542 H       1  ZINC000245764166    0.0600
     25 O25         0.3723   -0.1101   46.7539 O.3     1  ZINC000245764166   -0.3600
     26 C26        -1.0443    0.0059   46.5140 C.3     1  ZINC000245764166    0.0500
     27 C27        -1.4351    1.4748   46.7751 C.3     1  ZINC000245764166   -0.1500
     28 C28        -0.0914    2.1565   47.1705 C.3     1  ZINC000245764166   -0.1300
     29 H29        -0.0067    3.1720   46.7837 H       1  ZINC000245764166    0.1000
     30 H30        -2.5345    3.8224   56.5734 H       1  ZINC000245764166    0.0800
     31 H31        -3.3209    2.7137   55.4243 H       1  ZINC000245764166    0.0700
     32 H32        -1.6214    2.4573   55.8871 H       1  ZINC000245764166    0.0200
     33 H33        -0.4400    5.4296   54.0728 H       1  ZINC000245764166    0.0400
     34 H34        -0.9148    5.4185   55.7882 H       1  ZINC000245764166    0.1100
     35 H35         1.1345    3.8318   53.2127 H       1  ZINC000245764166    0.1200
     36 H36         2.9453    2.2369   53.7032 H       1  ZINC000245764166    0.1200
     37 H37         3.2057    1.3314   55.9781 H       1  ZINC000245764166    0.1200
     38 H38         1.6558    2.0214   57.7627 H       1  ZINC000245764166    0.1200
     39 H39        -0.1522    3.6198   57.2733 H       1  ZINC000245764166    0.1200
     40 H40        -0.7879    3.4905   52.9153 H       1  ZINC000245764166    0.0400
     41 H41        -1.8194    2.2055   53.5884 H       1  ZINC000245764166    0.1000
     42 H42        -4.3111    2.3027   53.2336 H       1  ZINC000245764166    0.0700
     43 H43        -4.6435    2.7154   51.5344 H       1  ZINC000245764166    0.0800
     44 H44        -3.3504    1.5589   51.9328 H       1  ZINC000245764166    0.0500
     45 H45        -2.8933    5.7353   52.7280 H       1  ZINC000245764166    0.0600
     46 H46        -4.4358    5.0716   52.1378 H       1  ZINC000245764166    0.0800
     47 H47        -3.9209    4.7701   53.8147 H       1  ZINC000245764166    0.0600
     48 H48        -2.4450    4.6526   50.5299 H       1  ZINC000245764166    0.3900
     49 H49        -1.0795    3.9202   48.7840 H       1  ZINC000245764166    0.3900
     50 H50         1.7623    3.3212   48.8022 H       1  ZINC000245764166    0.0600
     51 H51         1.4632    2.3324   50.2555 H       1  ZINC000245764166    0.0700
     52 H52         3.3491    1.3850   48.9731 H       1  ZINC000245764166    0.0700
     53 H53         1.9575    0.2726   48.9100 H       1  ZINC000245764166    0.0700
     54 H54         2.7156    2.3217   46.7821 H       1  ZINC000245764166    0.0800
     55 H55         2.9575    0.5669   46.6647 H       1  ZINC000245764166    0.0700
     56 H56        -1.2679   -0.2589   45.4806 H       1  ZINC000245764166    0.0600
     57 H57        -1.5901   -0.6491   47.1930 H       1  ZINC000245764166    0.0800
     58 H58        -1.8422    1.9286   45.8715 H       1  ZINC000245764166    0.0800
     59 H59        -2.1523    1.5400   47.5933 H       1  ZINC000245764166    0.0800
@<TRIPOS>BOND
     1     1     2    1
     2     1    30    1
     3     1    31    1
     4     1    32    1
     5     2     3    1
     6     2    10    1
     7     3     4    1
     8     3    33    1
     9     3    34    1
    10     4     9   ar
    11     4     5   ar
    12     5     6   ar
    13     5    35    1
    14     6     7   ar
    15     6    36    1
    16     7     8   ar
    17     7    37    1
    18     8     9   ar
    19     8    38    1
    20     9    39    1
    21    10    11    1
    22    10    40    1
    23    10    41    1
    24    11    12    1
    25    11    13    1
    26    11    14    1
    27    12    42    1
    28    12    43    1
    29    12    44    1
    30    13    45    1
    31    13    46    1
    32    13    47    1
    33    14    15   am
    34    14    48    1
    35    15    16    2
    36    15    17   am
    37    17    18    1
    38    17    49    1
    39    18    19    1
    40    18    28    1
    41    18    20    1
    42    20    21    1
    43    20    50    1
    44    20    51    1
    45    21    22    1
    46    21    52    1
    47    21    53    1
    48    22    23    1
    49    22    54    1
    50    22    55    1
    51    23    24    1
    52    23    28    1
    53    23    25    1
    54    25    26    1
    55    26    27    1
    56    26    56    1
    57    26    57    1
    58    27    28    1
    59    27    58    1
    60    27    59    1
    61    28    29    1
@<TRIPOS>SUBSTRUCTURE
     1 ZINC000245764166        1 TEMP              0 ****  ****    0 ROOT


##########                                Name:    ZINC000790735374
##########                DOCK_Rotatable_Bonds:                   5
##########                         Heavy_Atoms:                  25
##########                    Molecular_Weight:             353.445
##########                DOCK_Rotatable_Bonds:                   5
##########                       Formal_Charge:                   0
##########                     HBond_Acceptors:                   6
##########                        HBond_Donors:                   1
##########                         Heavy_Atoms:                  25
##########                          Grid_Score:          -28.596138
##########                     Grid_vdw_energy:          -26.995163
##########                      Grid_es_energy:           -1.600974
##########           Internal_energy_repulsive:            9.014960

@<TRIPOS>MOLECULE
ZINC000790735374
 44 47 1 0 0
SMALL
USER_CHARGES


@<TRIPOS>ATOM
      1 O1         -1.2169    1.8170   51.6784 O.2     1  ZINC000790735374   -0.5100
      2 C2         -1.8191    2.6909   51.0912 C.2     1  ZINC000790735374    0.5000
      3 N3         -1.8364    2.7087   49.7437 N.am    1  ZINC000790735374   -0.7200
      4 C4         -1.1228    1.6761   48.9882 C.3     1  ZINC000790735374    0.1400
      5 C5         -0.8214    2.1913   47.5794 C.3     1  ZINC000790735374   -0.0300
      6 H6         -1.6884    2.0223   46.9407 H       1  ZINC000790735374    0.1100
      7 S7         -0.4687    3.9684   47.6537 S.3     1  ZINC000790735374   -0.2400
      8 C8          0.2545    4.2436   46.0057 C.3     1  ZINC000790735374   -0.0800
      9 C9          1.5461    3.4434   45.9268 C.3     1  ZINC000790735374   -0.0800
     10 C10         1.3766    1.9931   46.2799 C.ar    1  ZINC000790735374   -0.0700
     11 C11         2.3827    1.1550   45.7874 C.ar    1  ZINC000790735374   -0.1200
     12 C12         2.3790   -0.1969   46.0382 C.ar    1  ZINC000790735374   -0.1100
     13 C13         1.3615   -0.7460   46.7962 C.ar    1  ZINC000790735374   -0.1200
     14 C14         0.3654    0.0718   47.2786 C.ar    1  ZINC000790735374   -0.1100
     15 C15         0.3644    1.4461   47.0187 C.ar    1  ZINC000790735374   -0.0800
     16 C16        -2.5532    3.7531   51.8683 C.3     1  ZINC000790735374    0.0300
     17 H17        -3.4870    4.0202   51.3736 H       1  ZINC000790735374    0.1500
     18 C18        -2.8086    3.2970   53.3246 C.3     1  ZINC000790735374   -0.1400
     19 C19        -1.6191    3.8777   54.0654 C.2     1  ZINC000790735374    0.1200
     20 C20        -1.1731    3.4958   55.4201 C.ar    1  ZINC000790735374   -0.1000
     21 C21        -1.8790    2.5384   56.1585 C.ar    1  ZINC000790735374   -0.0400
     22 C22        -1.4190    2.2156   57.4232 C.ar    1  ZINC000790735374   -0.1700
     23 C23        -0.2877    2.8428   57.9126 C.ar    1  ZINC000790735374    0.1200
     24 N24         0.3579    3.7417   57.1943 N.ar    1  ZINC000790735374   -0.4800
     25 C25        -0.0369    4.0789   55.9842 C.ar    1  ZINC000790735374    0.1400
     26 N26        -1.0637    4.7631   53.3079 N.2     1  ZINC000790735374   -0.2700
     27 O27        -1.7225    4.9153   52.0652 O.3     1  ZINC000790735374   -0.1600
     28 H28        -2.3212    3.4053   49.2740 H       1  ZINC000790735374    0.4100
     29 H29        -0.1881    1.4358   49.4949 H       1  ZINC000790735374    0.0800
     30 H30        -1.7412    0.7809   48.9231 H       1  ZINC000790735374    0.0900
     31 H31        -0.4387    3.9030   45.2365 H       1  ZINC000790735374    0.0900
     32 H32         0.4679    5.3037   45.8683 H       1  ZINC000790735374    0.1100
     33 H33         1.9374    3.5119   44.9118 H       1  ZINC000790735374    0.0900
     34 H34         2.2727    3.8857   46.6083 H       1  ZINC000790735374    0.0900
     35 H35         3.1807    1.5797   45.1963 H       1  ZINC000790735374    0.1200
     36 H36         3.1649   -0.8252   45.6458 H       1  ZINC000790735374    0.1300
     37 H37         1.3484   -1.8052   47.0070 H       1  ZINC000790735374    0.1300
     38 H38        -0.4295   -0.3559   47.8716 H       1  ZINC000790735374    0.1300
     39 H39        -3.7416    3.7147   53.7030 H       1  ZINC000790735374    0.1200
     40 H40        -2.8143    2.2092   53.3941 H       1  ZINC000790735374    0.1100
     41 H41        -2.7600    2.0644   55.7518 H       1  ZINC000790735374    0.1500
     42 H42        -1.9382    1.4819   58.0218 H       1  ZINC000790735374    0.1500
     43 H43         0.0731    2.5930   58.8995 H       1  ZINC000790735374    0.1600
     44 H44         0.5181    4.8188   55.4266 H       1  ZINC000790735374    0.1600
@<TRIPOS>BOND
     1     1     2    2
     2     2     3   am
     3     2    16    1
     4     3     4    1
     5     3    28    1
     6     4     5    1
     7     4    29    1
     8     4    30    1
     9     5     6    1
    10     5    15    1
    11     5     7    1
    12     7     8    1
    13     8     9    1
    14     8    31    1
    15     8    32    1
    16     9    10    1
    17     9    33    1
    18     9    34    1
    19    10    15   ar
    20    10    11   ar
    21    11    12   ar
    22    11    35    1
    23    12    13   ar
    24    12    36    1
    25    13    14   ar
    26    13    37    1
    27    14    15   ar
    28    14    38    1
    29    16    17    1
    30    16    27    1
    31    16    18    1
    32    18    19    1
    33    18    39    1
    34    18    40    1
    35    19    20    1
    36    19    26    2
    37    20    25   ar
    38    20    21   ar
    39    21    22   ar
    40    21    41    1
    41    22    23   ar
    42    22    42    1
    43    23    24   ar
    44    23    43    1
    45    24    25   ar
    46    25    44    1
    47    26    27    1
@<TRIPOS>SUBSTRUCTURE
     1 ZINC000790735374        1 TEMP              0 ****  ****    0 ROOT


##########                                Name:    ZINC000866717058
##########                DOCK_Rotatable_Bonds:                   7
##########                         Heavy_Atoms:                  25
##########                    Molecular_Weight:             380.388
##########                DOCK_Rotatable_Bonds:                   7
##########                       Formal_Charge:                0.04
##########                     HBond_Acceptors:                  10
##########                        HBond_Donors:                   1
##########                         Heavy_Atoms:                  25
##########                          Grid_Score:          -28.595470
##########                     Grid_vdw_energy:          -28.047699
##########                      Grid_es_energy:           -0.547771
##########           Internal_energy_repulsive:            8.536282

@<TRIPOS>MOLECULE
ZINC000866717058
 44 45 1 0 0
SMALL
USER_CHARGES


@<TRIPOS>ATOM
      1 C1         -7.1713   -1.2673   51.6803 C.3     1  ZINC000866717058   -0.1100
      2 C2         -7.7111    0.0477   52.1804 C.ar    1  ZINC000866717058    0.2400
      3 N3         -6.9179    1.0964   52.2434 N.ar    1  ZINC000866717058   -0.5500
      4 C4         -7.3481    2.2718   52.6761 C.ar    1  ZINC000866717058    0.3500
      5 O5         -6.4918    3.3210   52.7214 O.3     1  ZINC000866717058   -0.2800
      6 C6         -5.4874    3.2952   53.7375 C.3     1  ZINC000866717058    0.0500
      7 H7         -5.6024    2.3937   54.3394 H       1  ZINC000866717058    0.1300
      8 C8         -4.1029    3.3004   53.0863 C.3     1  ZINC000866717058   -0.1700
      9 C9         -5.6350    4.5277   54.6319 C.3     1  ZINC000866717058    0.4600
     10 F10        -5.5593    5.6842   53.8483 F       1  ZINC000866717058   -0.1700
     11 F11        -6.8724    4.4859   55.2832 F       1  ZINC000866717058   -0.1700
     12 F12        -4.6081    4.5403   55.5820 F       1  ZINC000866717058   -0.1700
     13 C13        -8.6668    2.4451   53.0845 C.ar    1  ZINC000866717058   -0.1900
     14 C14        -9.5344    1.3731   53.0357 C.ar    1  ZINC000866717058    0.0000
     15 C15        -9.0486    0.1437   52.5671 C.ar    1  ZINC000866717058   -0.2300
     16 C16        -9.9357   -1.0339   52.4947 C.2     1  ZINC000866717058    0.5800
     17 O17       -10.6633   -1.1886   51.5330 O.2     1  ZINC000866717058   -0.5200
     18 N18        -9.9393   -1.9375   53.4948 N.am    1  ZINC000866717058   -0.7400
     19 C19       -10.8210   -3.1052   53.4236 C.3     1  ZINC000866717058    0.1400
     20 C20       -12.0806   -2.8443   54.2521 C.3     1  ZINC000866717058   -0.5700
     21 H21       -12.4902   -1.8587   54.0307 H       1  ZINC000866717058    0.1500
     22 C22       -13.1405   -3.9487   54.0048 C.3     1  ZINC000866717058   -0.1100
     23 C23       -14.1189   -3.8935   55.1912 C.3     1  ZINC000866717058   -0.1200
     24 C24       -13.3062   -3.8296   56.4997 C.3     1  ZINC000866717058   -0.5900
     25 S25       -11.7287   -3.0154   56.0426 S.o2    1  ZINC000866717058    2.3700
     26 O26       -10.6569   -3.9307   56.2231 O.2     1  ZINC000866717058   -0.9200
     27 O27       -11.6719   -1.7285   56.6425 O.2     1  ZINC000866717058   -0.9300
     28 H28        -7.4086   -1.3787   50.6223 H       1  ZINC000866717058    0.0900
     29 H29        -6.0899   -1.2909   51.8146 H       1  ZINC000866717058    0.0700
     30 H30        -7.6251   -2.0837   52.2422 H       1  ZINC000866717058    0.1100
     31 H31        -3.3367    3.2808   53.8614 H       1  ZINC000866717058    0.0900
     32 H32        -3.9977    2.4224   52.4492 H       1  ZINC000866717058    0.0900
     33 H33        -3.9878    4.2019   52.4845 H       1  ZINC000866717058    0.0800
     34 H34        -9.0076    3.4077   53.4361 H       1  ZINC000866717058    0.1600
     35 H35       -10.5632    1.4792   53.3469 H       1  ZINC000866717058    0.1500
     36 H36        -9.3580   -1.8146   54.2615 H       1  ZINC000866717058    0.4000
     37 H37       -11.1000   -3.2871   52.3858 H       1  ZINC000866717058    0.1000
     38 H38       -10.3009   -3.9780   53.8184 H       1  ZINC000866717058    0.1000
     39 H39       -13.6719   -3.7543   53.0732 H       1  ZINC000866717058    0.1100
     40 H40       -12.6589   -4.9256   53.9634 H       1  ZINC000866717058    0.0900
     41 H41       -14.7476   -3.0070   55.1067 H       1  ZINC000866717058    0.0900
     42 H42       -14.7450   -4.7857   55.1918 H       1  ZINC000866717058    0.1000
     43 H43       -13.8344   -3.2345   57.2447 H       1  ZINC000866717058    0.1400
     44 H44       -13.1202   -4.8343   56.8791 H       1  ZINC000866717058    0.1400
@<TRIPOS>BOND
     1     1     2    1
     2     1    28    1
     3     1    29    1
     4     1    30    1
     5     2    15   ar
     6     2     3   ar
     7     3     4   ar
     8     4     5    1
     9     4    13   ar
    10     5     6    1
    11     6     7    1
    12     6     8    1
    13     6     9    1
    14     8    31    1
    15     8    32    1
    16     8    33    1
    17     9    10    1
    18     9    11    1
    19     9    12    1
    20    13    14   ar
    21    13    34    1
    22    14    15   ar
    23    14    35    1
    24    15    16    1
    25    16    17    2
    26    16    18   am
    27    18    19    1
    28    18    36    1
    29    19    20    1
    30    19    37    1
    31    19    38    1
    32    20    21    1
    33    20    25    1
    34    20    22    1
    35    22    23    1
    36    22    39    1
    37    22    40    1
    38    23    24    1
    39    23    41    1
    40    23    42    1
    41    24    25    1
    42    24    43    1
    43    24    44    1
    44    25    26    2
    45    25    27    2
@<TRIPOS>SUBSTRUCTURE
     1 ZINC000866717058        1 TEMP              0 ****  ****    0 ROOT


##########                                Name:    ZINC001272744746
##########                DOCK_Rotatable_Bonds:                   6
##########                         Heavy_Atoms:                  25
##########                    Molecular_Weight:             348.417
##########                DOCK_Rotatable_Bonds:                   6
##########                       Formal_Charge:           0.0299999
##########                     HBond_Acceptors:                   6
##########                        HBond_Donors:                   1
##########                         Heavy_Atoms:                  25
##########                          Grid_Score:          -28.584606
##########                     Grid_vdw_energy:          -28.989086
##########                      Grid_es_energy:            0.404481
##########           Internal_energy_repulsive:           70.782280

@<TRIPOS>MOLECULE
ZINC001272744746
 50 52 1 0 0
SMALL
USER_CHARGES


@<TRIPOS>ATOM
      1 C1          3.2365   -0.3208   45.3967 C.2     1  ZINC001272744746   -0.1700
      2 C2          2.4870    0.3520   46.2343 C.2     1  ZINC001272744746   -0.1700
      3 C3          1.5255   -0.3764   47.1375 C.3     1  ZINC001272744746    0.1500
      4 N4          0.6012    0.5851   47.7438 N.am    1  ZINC001272744746   -0.6100
      5 C5          0.9821    1.5710   48.7642 C.3     1  ZINC001272744746    0.0700
      6 C6         -0.1612    2.6000   48.7829 C.3     1  ZINC001272744746    0.1100
      7 C7         -1.3514    1.7839   48.2463 C.3     1  ZINC001272744746   -0.1500
      8 C8         -0.7039    0.6825   47.4337 C.2     1  ZINC001272744746    0.5200
      9 O9         -1.2799   -0.0155   46.6262 O.2     1  ZINC001272744746   -0.5200
     10 C10         0.1510    3.7643   47.8531 C.3     1  ZINC001272744746   -0.1000
     11 C11         1.3512    4.5441   48.4009 C.3     1  ZINC001272744746   -0.1200
     12 C12         1.0423    4.9982   49.8303 C.3     1  ZINC001272744746   -0.1200
     13 C13         0.7366    3.7750   50.6976 C.3     1  ZINC001272744746    0.0500
     14 N14        -0.4215    3.0590   50.1440 N.3     1  ZINC001272744746   -0.5100
     15 C15        -0.8122    1.9396   51.0114 C.3     1  ZINC001272744746    0.0800
     16 C16        -2.2141    2.1620   51.5176 C.ar    1  ZINC001272744746   -0.0200
     17 C17        -2.5570    3.3733   52.0883 C.ar    1  ZINC001272744746   -0.1700
     18 C18        -3.8437    3.5820   52.5549 C.ar    1  ZINC001272744746    0.1200
     19 F19        -4.1767    4.7668   53.1124 F       1  ZINC001272744746   -0.1200
     20 C20        -4.7910    2.5743   52.4490 C.ar    1  ZINC001272744746    0.0400
     21 O21        -6.0562    2.7770   52.9062 O.3     1  ZINC001272744746   -0.4700
     22 C22        -4.4444    1.3561   51.8740 C.ar    1  ZINC001272744746    0.1300
     23 O23        -5.3697    0.3652   51.7676 O.3     1  ZINC001272744746   -0.3000
     24 C24        -6.6794    0.6443   52.2664 C.3     1  ZINC001272744746    0.0200
     25 C25        -3.1558    1.1559   51.4049 C.ar    1  ZINC001272744746   -0.1800
     26 H26         3.1655   -1.3976   45.3535 H       1  ZINC001272744746    0.1000
     27 H27         3.9224    0.2015   44.7463 H       1  ZINC001272744746    0.1000
     28 H28         2.5581    1.4288   46.2775 H       1  ZINC001272744746    0.1100
     29 H29         0.9615   -1.1053   46.5556 H       1  ZINC001272744746    0.0900
     30 H30         2.0818   -0.8898   47.9220 H       1  ZINC001272744746    0.0800
     31 H31         1.0737    1.0904   49.7381 H       1  ZINC001272744746    0.0700
     32 H32         1.9204    2.0540   48.4910 H       1  ZINC001272744746    0.0900
     33 H33        -1.9304    1.3661   49.0700 H       1  ZINC001272744746    0.1100
     34 H34        -1.9833    2.4034   47.6098 H       1  ZINC001272744746    0.1100
     35 H35         0.3877    3.3830   46.8598 H       1  ZINC001272744746    0.0700
     36 H36        -0.7146    4.4240   47.7931 H       1  ZINC001272744746    0.0800
     37 H37         2.2321    3.9020   48.4047 H       1  ZINC001272744746    0.0600
     38 H38         1.5367    5.4159   47.7735 H       1  ZINC001272744746    0.0700
     39 H39         1.9039    5.5268   50.2381 H       1  ZINC001272744746    0.0700
     40 H40         0.1784    5.6628   49.8219 H       1  ZINC001272744746    0.0700
     41 H41         1.6020    3.1123   50.7090 H       1  ZINC001272744746    0.0400
     42 H42         0.5125    4.0973   51.7144 H       1  ZINC001272744746    0.0900
     43 H43        -0.7741    1.0098   50.4438 H       1  ZINC001272744746    0.1000
     44 H44        -0.1263    1.8780   51.8562 H       1  ZINC001272744746    0.0600
     45 H45        -1.8197    4.1582   52.1709 H       1  ZINC001272744746    0.1400
     46 H46        -6.2017    3.6549   53.2848 H       1  ZINC001272744746    0.3900
     47 H47        -7.0988    1.4953   51.7298 H       1  ZINC001272744746    0.0600
     48 H48        -7.3173   -0.2275   52.1203 H       1  ZINC001272744746    0.1100
     49 H49        -6.6213    0.8778   53.3294 H       1  ZINC001272744746    0.0600
     50 H50        -2.8848    0.2108   50.9580 H       1  ZINC001272744746    0.1400
@<TRIPOS>BOND
     1     1     2    2
     2     1    26    1
     3     1    27    1
     4     2     3    1
     5     2    28    1
     6     3     4    1
     7     3    29    1
     8     3    30    1
     9     4     8   am
    10     4     5    1
    11     5     6    1
    12     5    31    1
    13     5    32    1
    14     6    14    1
    15     6     7    1
    16     6    10    1
    17     7     8    1
    18     7    33    1
    19     7    34    1
    20     8     9    2
    21    10    11    1
    22    10    35    1
    23    10    36    1
    24    11    12    1
    25    11    37    1
    26    11    38    1
    27    12    13    1
    28    12    39    1
    29    12    40    1
    30    13    14    1
    31    13    41    1
    32    13    42    1
    33    14    15    1
    34    15    16    1
    35    15    43    1
    36    15    44    1
    37    16    25   ar
    38    16    17   ar
    39    17    18   ar
    40    17    45    1
    41    18    19    1
    42    18    20   ar
    43    20    21    1
    44    20    22   ar
    45    21    46    1
    46    22    23    1
    47    22    25   ar
    48    23    24    1
    49    24    47    1
    50    24    48    1
    51    24    49    1
    52    25    50    1
@<TRIPOS>SUBSTRUCTURE
     1 ZINC001272744746        1 TEMP              0 ****  ****    0 ROOT


##########                                Name:    ZINC000012979878
##########                DOCK_Rotatable_Bonds:                   7
##########                         Heavy_Atoms:                  26
##########                    Molecular_Weight:             388.874
##########                DOCK_Rotatable_Bonds:                   7
##########                       Formal_Charge:          -0.0100003
##########                     HBond_Acceptors:                   7
##########                        HBond_Donors:                   1
##########                         Heavy_Atoms:                  26
##########                          Grid_Score:          -28.571997
##########                     Grid_vdw_energy:          -29.530243
##########                      Grid_es_energy:            0.958247
##########           Internal_energy_repulsive:           10.651897

@<TRIPOS>MOLECULE
ZINC000012979878
 43 45 1 0 0
SMALL
USER_CHARGES


@<TRIPOS>ATOM
      1 C1         -2.8877    2.9118   52.4807 C.3     1  <0>         0.0300
      2 O2         -3.3084    3.9535   53.3638 O.3     1  <0>        -0.3100
      3 C3         -4.6462    4.1658   53.4744 C.ar    1  <0>         0.1500
      4 C4         -5.1178    5.3216   54.0806 C.ar    1  <0>        -0.2200
      5 C5         -6.4781    5.5389   54.1943 C.ar    1  <0>        -0.0600
      6 C6         -7.3722    4.6071   53.7047 C.ar    1  <0>        -0.1800
      7 C7         -6.9057    3.4479   53.0967 C.ar    1  <0>         0.1800
      8 N8         -7.8109    2.5044   52.6010 N.am    1  <0>        -0.6700
      9 C9         -7.8195    1.2521   53.0992 C.2     1  <0>         0.6000
     10 O10        -7.0394    0.9425   53.9804 O.2     1  <0>        -0.4900
     11 C11        -8.7688    0.2626   52.5793 C.2     1  <0>        -0.3000
     12 C12        -8.4571   -0.8417   51.8553 C.2     1  <0>         0.1600
     13 C13        -7.0427   -1.2030   51.4810 C.3     1  <0>        -0.0900
     14 N14        -9.4914   -1.5668   51.5105 N.2     1  <0>        -0.4500
     15 C15       -10.6588   -1.1564   51.8902 C.2     1  <0>         0.0600
     16 C16       -11.9576   -1.8584   51.5877 C.3     1  <0>         0.1300
     17 O17       -11.9291   -3.1739   52.1450 O.3     1  <0>        -0.3000
     18 C18       -12.4921   -3.3368   53.3714 C.ar    1  <0>         0.1300
     19 C19       -11.7286   -3.8093   54.4288 C.ar    1  <0>        -0.2000
     20 C20       -12.3025   -3.9743   55.6745 C.ar    1  <0>        -0.0700
     21 C21       -13.6383   -3.6690   55.8677 C.ar    1  <0>        -0.0700
     22 Cl22      -14.3574   -3.8777   57.4339 Cl      1  <0>        -0.0700
     23 C23       -14.4012   -3.1972   54.8143 C.ar    1  <0>        -0.0700
     24 C24       -13.8294   -3.0254   53.5686 C.ar    1  <0>        -0.1300
     25 S25       -10.5181    0.2906   52.7896 S.3     1  <0>         0.2000
     26 C26        -5.5403    3.2308   52.9767 C.ar    1  <0>        -0.1500
     27 H27        -3.3086    1.9625   52.8121 H       1  <0>         0.0600
     28 H28        -3.2340    3.1299   51.4705 H       1  <0>         0.0600
     29 H29        -1.7995    2.8484   52.4859 H       1  <0>         0.1000
     30 H30        -4.4210    6.0521   54.4645 H       1  <0>         0.1300
     31 H31        -6.8424    6.4389   54.6672 H       1  <0>         0.1300
     32 H32        -8.4346    4.7792   53.7948 H       1  <0>         0.1300
     33 H33        -8.4327    2.7511   51.8986 H       1  <0>         0.4100
     34 H34        -6.6109   -1.8334   52.2585 H       1  <0>         0.0900
     35 H35        -7.0440   -1.7433   50.5343 H       1  <0>         0.0800
     36 H36        -6.4501   -0.2939   51.3797 H       1  <0>         0.1000
     37 H37       -12.7840   -1.2970   52.0236 H       1  <0>         0.0900
     38 H38       -12.0922   -1.9240   50.5081 H       1  <0>         0.1000
     39 H39       -10.6862   -4.0485   54.2782 H       1  <0>         0.1400
     40 H40       -11.7085   -4.3422   56.4980 H       1  <0>         0.1400
     41 H41       -15.4435   -2.9590   54.9672 H       1  <0>         0.1400
     42 H42       -14.4253   -2.6571   52.7466 H       1  <0>         0.1400
     43 H43        -5.1750    2.3310   52.5042 H       1  <0>         0.1400
@<TRIPOS>BOND
     1     1     2    1
     2     1    27    1
     3     1    28    1
     4     1    29    1
     5     2     3    1
     6     3    26   ar
     7     3     4   ar
     8     4     5   ar
     9     4    30    1
    10     5     6   ar
    11     5    31    1
    12     6     7   ar
    13     6    32    1
    14     7     8    1
    15     7    26   ar
    16     8     9   am
    17     8    33    1
    18     9    10    2
    19     9    11    1
    20    11    25    1
    21    11    12    2
    22    12    13    1
    23    12    14    1
    24    13    34    1
    25    13    35    1
    26    13    36    1
    27    14    15    2
    28    15    16    1
    29    15    25    1
    30    16    17    1
    31    16    37    1
    32    16    38    1
    33    17    18    1
    34    18    24   ar
    35    18    19   ar
    36    19    20   ar
    37    19    39    1
    38    20    21   ar
    39    20    40    1
    40    21    22    1
    41    21    23   ar
    42    23    24   ar
    43    23    41    1
    44    24    42    1
    45    26    43    1
@<TRIPOS>SUBSTRUCTURE
     1 <0>         1 TEMP              0 ****  ****    0 ROOT


##########                                Name:    ZINC000444811358
##########                DOCK_Rotatable_Bonds:                  11
##########                         Heavy_Atoms:                  27
##########                    Molecular_Weight:             374.455
##########                DOCK_Rotatable_Bonds:                  11
##########                       Formal_Charge:          0.00999966
##########                     HBond_Acceptors:                   6
##########                        HBond_Donors:                   2
##########                         Heavy_Atoms:                  27
##########                          Grid_Score:          -28.569935
##########                     Grid_vdw_energy:          -27.944365
##########                      Grid_es_energy:           -0.625571
##########           Internal_energy_repulsive:           20.837898

@<TRIPOS>MOLECULE
ZINC000444811358
 54 55 1 0 0
SMALL
USER_CHARGES


@<TRIPOS>ATOM
      1 C1         -5.5471    3.6014   53.9944 C.3     1  ZINC000444811358   -0.1100
      2 C2         -4.4972    3.3759   52.9372 C.ar    1  ZINC000444811358   -0.1300
      3 C3         -4.4484    2.1724   52.2591 C.ar    1  ZINC000444811358   -0.0700
      4 C4         -3.4870    1.9620   51.2895 C.ar    1  ZINC000444811358   -0.1500
      5 C5         -2.5683    2.9609   50.9951 C.ar    1  ZINC000444811358    0.1700
      6 N6         -1.5942    2.7497   50.0132 N.am    1  ZINC000444811358   -0.6800
      7 C7         -0.4440    2.1221   50.3290 C.2     1  ZINC000444811358    0.5200
      8 O8         -0.2534    1.7403   51.4643 O.2     1  ZINC000444811358   -0.5000
      9 C9          0.6052    1.8946   49.2714 C.3     1  ZINC000444811358    0.0200
     10 N10        -0.0293    1.8842   47.9465 N.3     1  ZINC000444811358   -0.5000
     11 C11         0.7354    2.6956   46.9901 C.3     1  ZINC000444811358    0.0200
     12 C12         0.2831    4.1543   47.0829 C.3     1  ZINC000444811358    0.1100
     13 H13        -0.7769    4.1908   47.3337 H       1  ZINC000444811358    0.1200
     14 O14         1.0360    4.8228   48.0969 O.3     1  ZINC000444811358   -0.5400
     15 C15         0.5130    4.8460   45.7375 C.3     1  ZINC000444811358    0.0300
     16 O16         1.9093    4.8445   45.4336 O.3     1  ZINC000444811358   -0.3000
     17 C17         2.2783    5.3452   44.2254 C.ar    1  ZINC000444811358    0.1300
     18 C18         3.6210    5.4180   43.8839 C.ar    1  ZINC000444811358   -0.2100
     19 C19         3.9934    5.9270   42.6549 C.ar    1  ZINC000444811358   -0.0800
     20 C20         3.0292    6.3640   41.7655 C.ar    1  ZINC000444811358   -0.1600
     21 C21         1.6904    6.2930   42.1034 C.ar    1  ZINC000444811358   -0.0800
     22 C22         1.3125    5.7792   43.3289 C.ar    1  ZINC000444811358   -0.1500
     23 C23        -0.1981    0.5103   47.4545 C.3     1  ZINC000444811358    0.0700
     24 C24        -1.1905    0.5039   46.2899 C.3     1  ZINC000444811358   -0.1400
     25 C25         1.1515   -0.0300   46.9776 C.3     1  ZINC000444811358   -0.1900
     26 C26        -2.6183    4.1697   51.6765 C.ar    1  ZINC000444811358   -0.1500
     27 C27        -3.5863    4.3771   52.6426 C.ar    1  ZINC000444811358    0.1200
     28 F28        -3.6365    5.5525   53.3067 F       1  ZINC000444811358   -0.1300
     29 H29        -6.4393    4.0273   53.5354 H       1  ZINC000444811358    0.0700
     30 H30        -5.7990    2.6510   54.4650 H       1  ZINC000444811358    0.0700
     31 H31        -5.1625    4.2891   54.7476 H       1  ZINC000444811358    0.0700
     32 H32        -5.1627    1.3953   52.4877 H       1  ZINC000444811358    0.1400
     33 H33        -3.4497    1.0210   50.7610 H       1  ZINC000444811358    0.1300
     34 H34        -1.7465    3.0550   49.1052 H       1  ZINC000444811358    0.4100
     35 H35         1.3437    2.6952   49.3142 H       1  ZINC000444811358    0.1300
     36 H36         1.0963    0.9375   49.4466 H       1  ZINC000444811358    0.0700
     37 H37         1.7977    2.6289   47.2249 H       1  ZINC000444811358    0.0500
     38 H38         0.5626    2.3252   45.9796 H       1  ZINC000444811358    0.1000
     39 H39         0.7914    5.7501   48.2214 H       1  ZINC000444811358    0.3700
     40 H40        -0.0293    4.3122   44.9572 H       1  ZINC000444811358    0.0600
     41 H41         0.1540    5.8738   45.7914 H       1  ZINC000444811358    0.0700
     42 H42         4.3745    5.0773   44.5787 H       1  ZINC000444811358    0.1300
     43 H43         5.0385    5.9838   42.3886 H       1  ZINC000444811358    0.1200
     44 H44         3.3224    6.7619   40.8052 H       1  ZINC000444811358    0.1200
     45 H45         0.9392    6.6354   41.4071 H       1  ZINC000444811358    0.1300
     46 H46         0.2666    5.7239   43.5925 H       1  ZINC000444811358    0.1300
     47 H47        -0.5779   -0.1196   48.2590 H       1  ZINC000444811358    0.0900
     48 H48        -0.7530    1.0231   45.4371 H       1  ZINC000444811358    0.0500
     49 H49        -1.4173   -0.5252   46.0116 H       1  ZINC000444811358    0.0600
     50 H50        -2.1078    1.0094   46.5915 H       1  ZINC000444811358    0.0700
     51 H51         1.8584   -0.0255   47.8072 H       1  ZINC000444811358    0.0500
     52 H52         1.0262   -1.0493   46.6125 H       1  ZINC000444811358    0.0700
     53 H53         1.5313    0.5998   46.1732 H       1  ZINC000444811358    0.0600
     54 H54        -1.9050    4.9482   51.4499 H       1  ZINC000444811358    0.1500
@<TRIPOS>BOND
     1     1     2    1
     2     1    29    1
     3     1    30    1
     4     1    31    1
     5     2    27   ar
     6     2     3   ar
     7     3     4   ar
     8     3    32    1
     9     4     5   ar
    10     4    33    1
    11     5     6    1
    12     5    26   ar
    13     6     7   am
    14     6    34    1
    15     7     8    2
    16     7     9    1
    17     9    10    1
    18     9    35    1
    19     9    36    1
    20    10    11    1
    21    10    23    1
    22    11    12    1
    23    11    37    1
    24    11    38    1
    25    12    13    1
    26    12    14    1
    27    12    15    1
    28    14    39    1
    29    15    16    1
    30    15    40    1
    31    15    41    1
    32    16    17    1
    33    17    22   ar
    34    17    18   ar
    35    18    19   ar
    36    18    42    1
    37    19    20   ar
    38    19    43    1
    39    20    21   ar
    40    20    44    1
    41    21    22   ar
    42    21    45    1
    43    22    46    1
    44    23    24    1
    45    23    25    1
    46    23    47    1
    47    24    48    1
    48    24    49    1
    49    24    50    1
    50    25    51    1
    51    25    52    1
    52    25    53    1
    53    26    27   ar
    54    26    54    1
    55    27    28    1
@<TRIPOS>SUBSTRUCTURE
     1 ZINC000444811358        1 TEMP              0 ****  ****    0 ROOT


##########                                Name:    ZINC001490207225
##########                DOCK_Rotatable_Bonds:                   7
##########                         Heavy_Atoms:                  24
##########                    Molecular_Weight:             334.378
##########                DOCK_Rotatable_Bonds:                   7
##########                       Formal_Charge:           -0.010001
##########                     HBond_Acceptors:                   9
##########                        HBond_Donors:                   3
##########                         Heavy_Atoms:                  24
##########                          Grid_Score:          -28.569912
##########                     Grid_vdw_energy:          -26.416506
##########                      Grid_es_energy:           -2.153405
##########           Internal_energy_repulsive:            6.292360

@<TRIPOS>MOLECULE
ZINC001490207225
 46 48 1 0 0
SMALL
USER_CHARGES


@<TRIPOS>ATOM
      1 C1         -6.5915    4.7646   56.0611 C.3     1  ZINC001490207225    0.0900
      2 N2         -6.9931    4.0384   54.8537 N.pl3   1  ZINC001490207225   -0.3600
      3 C3         -6.7232    2.7506   54.5866 C.2     1  ZINC001490207225    0.1300
      4 C4         -7.2762    2.4592   53.3557 C.2     1  ZINC001490207225   -0.3000
      5 C5         -7.2281    1.1603   52.6600 C.2     1  ZINC001490207225    0.6200
      6 O6         -6.2898    0.8939   51.9339 O.2     1  ZINC001490207225   -0.5400
      7 N7         -8.2240    0.2681   52.8289 N.am    1  ZINC001490207225   -0.6200
      8 C8         -8.3230   -1.0665   52.2158 C.3     1  ZINC001490207225    0.1100
      9 C9         -9.8228   -1.3469   52.0256 C.3     1  ZINC001490207225   -0.1100
     10 H10       -10.1343   -1.2229   50.9884 H       1  ZINC001490207225    0.1000
     11 C11       -10.1443   -2.7573   52.5632 C.3     1  ZINC001490207225    0.1000
     12 N12       -11.4014   -2.5906   53.3284 N.am    1  ZINC001490207225   -0.6200
     13 C13       -12.4572   -3.4269   53.3766 C.2     1  ZINC001490207225    0.5300
     14 O14       -12.4421   -4.4598   52.7410 O.2     1  ZINC001490207225   -0.5300
     15 C15       -13.6563   -3.0788   54.2203 C.3     1  ZINC001490207225    0.1200
     16 N16       -13.3629   -3.3635   55.6271 N.am    1  ZINC001490207225   -0.7400
     17 C17       -13.6887   -4.5602   56.1546 C.2     1  ZINC001490207225    0.7100
     18 N18       -13.4174   -4.8227   57.4484 N.am    1  ZINC001490207225   -0.8600
     19 O19       -14.2272   -5.4031   55.4633 O.2     1  ZINC001490207225   -0.5900
     20 C20       -11.2348   -1.2962   54.0287 C.3     1  ZINC001490207225    0.1100
     21 C21       -10.5468   -0.3588   52.9766 C.3     1  ZINC001490207225   -0.0800
     22 C22       -11.5561    0.5423   52.2623 C.3     1  ZINC001490207225   -0.1300
     23 C23        -9.4222    0.4353   53.6676 C.3     1  ZINC001490207225    0.1000
     24 C24        -7.8972    3.6389   52.8876 C.2     1  ZINC001490207225    0.0700
     25 N25        -7.7278    4.5684   53.7872 N.2     1  ZINC001490207225   -0.2900
     26 H26        -7.3657    4.6616   56.8213 H       1  ZINC001490207225    0.0800
     27 H27        -5.6552    4.3531   56.4379 H       1  ZINC001490207225    0.0900
     28 H28        -6.4548    5.8192   55.8220 H       1  ZINC001490207225    0.1000
     29 H29        -6.1742    2.0681   55.2184 H       1  ZINC001490207225    0.1900
     30 H30        -7.8159   -1.0734   51.2510 H       1  ZINC001490207225    0.0900
     31 H31        -7.8833   -1.8146   52.8754 H       1  ZINC001490207225    0.0800
     32 H32       -10.2918   -3.4537   51.7378 H       1  ZINC001490207225    0.0900
     33 H33        -9.3450   -3.1058   53.2171 H       1  ZINC001490207225    0.0900
     34 H34       -13.8872   -2.0199   54.1043 H       1  ZINC001490207225    0.1000
     35 H35       -14.5112   -3.6743   53.8997 H       1  ZINC001490207225    0.1000
     36 H36       -12.9344   -2.6907   56.1790 H       1  ZINC001490207225    0.4100
     37 H37       -13.6508   -5.6845   57.8277 H       1  ZINC001490207225    0.4000
     38 H38       -12.9888   -4.1500   58.0002 H       1  ZINC001490207225    0.4200
     39 H39       -12.2058   -0.8891   54.3105 H       1  ZINC001490207225    0.0900
     40 H40       -10.6038   -1.4191   54.9090 H       1  ZINC001490207225    0.0800
     41 H41       -12.0522    1.1821   52.9922 H       1  ZINC001490207225    0.0700
     42 H42       -11.0367    1.1609   51.5305 H       1  ZINC001490207225    0.0600
     43 H43       -12.2984   -0.0741   51.7555 H       1  ZINC001490207225    0.0600
     44 H44        -9.2279    0.0239   54.6581 H       1  ZINC001490207225    0.0800
     45 H45        -9.7005    1.4862   53.7467 H       1  ZINC001490207225    0.0900
     46 H46        -8.4235    3.7503   51.9512 H       1  ZINC001490207225    0.2000
@<TRIPOS>BOND
     1     1     2    1
     2     1    26    1
     3     1    27    1
     4     1    28    1
     5     2    25    1
     6     2     3    1
     7     3     4    2
     8     3    29    1
     9     4     5    1
    10     4    24    1
    11     5     6    2
    12     5     7   am
    13     7    23    1
    14     7     8    1
    15     8     9    1
    16     8    30    1
    17     8    31    1
    18     9    10    1
    19     9    21    1
    20     9    11    1
    21    11    12    1
    22    11    32    1
    23    11    33    1
    24    12    13   am
    25    12    20    1
    26    13    14    2
    27    13    15    1
    28    15    16    1
    29    15    34    1
    30    15    35    1
    31    16    17   am
    32    16    36    1
    33    17    18   am
    34    17    19    2
    35    18    37    1
    36    18    38    1
    37    20    21    1
    38    20    39    1
    39    20    40    1
    40    21    22    1
    41    21    23    1
    42    22    41    1
    43    22    42    1
    44    22    43    1
    45    23    44    1
    46    23    45    1
    47    24    25    2
    48    24    46    1
@<TRIPOS>SUBSTRUCTURE
     1 ZINC001490207225        1 TEMP              0 ****  ****    0 ROOT


##########                                Name:    ZINC000080099940
##########                DOCK_Rotatable_Bonds:                   4
##########                         Heavy_Atoms:                  26
##########                    Molecular_Weight:             343.388
##########                DOCK_Rotatable_Bonds:                   4
##########                       Formal_Charge:        -3.42727e-07
##########                     HBond_Acceptors:                   6
##########                        HBond_Donors:                   1
##########                         Heavy_Atoms:                  26
##########                          Grid_Score:          -28.548597
##########                     Grid_vdw_energy:          -29.436554
##########                      Grid_es_energy:            0.887956
##########           Internal_energy_repulsive:            5.148046

@<TRIPOS>MOLECULE
ZINC000080099940
 43 46 1 0 0
SMALL
USER_CHARGES


@<TRIPOS>ATOM
      1 C1        -16.4059   -2.5623   52.9974 C.3     1  ZINC000080099940   -0.1100
      2 C2        -14.9087   -2.5587   53.1693 C.2     1  ZINC000080099940   -0.0700
      3 C3        -14.1464   -1.6529   52.4998 C.2     1  ZINC000080099940   -0.0900
      4 C4        -12.7471   -1.6646   52.6731 C.2     1  ZINC000080099940    0.2300
      5 N5        -11.7821   -0.9166   52.1589 N.2     1  ZINC000080099940   -0.4800
      6 C6        -10.6001   -1.3301   52.6429 C.2     1  ZINC000080099940    0.1000
      7 C7         -9.2750   -0.7504   52.3124 C.ar    1  ZINC000080099940   -0.0200
      8 C8         -9.1367    0.6271   52.1499 C.ar    1  ZINC000080099940   -0.0800
      9 C9         -7.9043    1.1638   51.8432 C.ar    1  ZINC000080099940   -0.1200
     10 C10        -6.8003    0.3322   51.6957 C.ar    1  ZINC000080099940    0.1500
     11 N11        -5.5521    0.8784   51.3843 N.am    1  ZINC000080099940   -0.6500
     12 C12        -5.0375    1.8622   52.1483 C.2     1  ZINC000080099940    0.5700
     13 O13        -5.6586    2.2744   53.1077 O.2     1  ZINC000080099940   -0.5000
     14 C14        -3.7121    2.4421   51.8176 C.ar    1  ZINC000080099940    0.1300
     15 C15        -3.1241    3.3907   52.6551 C.ar    1  ZINC000080099940   -0.1700
     16 C16        -1.8832    3.9012   52.3004 C.ar    1  ZINC000080099940    0.1600
     17 N17        -1.3051    3.4753   51.1906 N.ar    1  ZINC000080099940   -0.5000
     18 C18        -1.8889    2.5770   50.4211 C.ar    1  ZINC000080099940    0.3200
     19 C19        -1.1890    2.1233   49.1659 C.3     1  ZINC000080099940   -0.0900
     20 N20        -3.0618    2.0619   50.7200 N.ar    1  ZINC000080099940   -0.5000
     21 C21        -6.9359   -1.0415   51.8576 C.ar    1  ZINC000080099940   -0.1400
     22 C22        -8.1654   -1.5819   52.1695 C.ar    1  ZINC000080099940   -0.0700
     23 C23       -10.8261   -2.3729   53.4901 C.2     1  ZINC000080099940   -0.0900
     24 N24       -12.1761   -2.5869   53.5123 N.pl3   1  ZINC000080099940   -0.3600
     25 C25       -12.9537   -3.4903   54.1780 C.2     1  ZINC000080099940    0.0600
     26 C26       -14.2946   -3.4870   54.0262 C.2     1  ZINC000080099940   -0.1400
     27 H27       -16.8403   -3.3502   53.6129 H       1  ZINC000080099940    0.0700
     28 H28       -16.8092   -1.5974   53.3044 H       1  ZINC000080099940    0.0800
     29 H29       -16.6510   -2.7423   51.9506 H       1  ZINC000080099940    0.0800
     30 H30       -14.6083   -0.9319   51.8415 H       1  ZINC000080099940    0.1500
     31 H31        -9.9944    1.2735   52.2639 H       1  ZINC000080099940    0.1300
     32 H32        -7.7967    2.2310   51.7174 H       1  ZINC000080099940    0.1400
     33 H33        -5.0561    0.5493   50.6185 H       1  ZINC000080099940    0.4200
     34 H34        -3.6217    3.7193   53.5555 H       1  ZINC000080099940    0.1600
     35 H35        -1.3964    4.6373   52.9230 H       1  ZINC000080099940    0.1800
     36 H36        -0.5600    1.2622   49.3915 H       1  ZINC000080099940    0.0900
     37 H37        -1.9305    1.8453   48.4168 H       1  ZINC000080099940    0.0900
     38 H38        -0.5705    2.9343   48.7814 H       1  ZINC000080099940    0.0900
     39 H39        -6.0768   -1.6858   51.7425 H       1  ZINC000080099940    0.1300
     40 H40        -8.2701   -2.6494   52.2957 H       1  ZINC000080099940    0.1400
     41 H41       -10.0794   -2.9263   54.0402 H       1  ZINC000080099940    0.1900
     42 H42       -12.4916   -4.2114   54.8359 H       1  ZINC000080099940    0.1700
     43 H43       -14.8977   -4.2072   54.5594 H       1  ZINC000080099940    0.1500
@<TRIPOS>BOND
     1     1     2    1
     2     1    27    1
     3     1    28    1
     4     1    29    1
     5     2    26    1
     6     2     3    2
     7     3     4    1
     8     3    30    1
     9     4    24    1
    10     4     5    2
    11     5     6    1
    12     6     7    1
    13     6    23    2
    14     7    22   ar
    15     7     8   ar
    16     8     9   ar
    17     8    31    1
    18     9    10   ar
    19     9    32    1
    20    10    11    1
    21    10    21   ar
    22    11    12   am
    23    11    33    1
    24    12    13    2
    25    12    14    1
    26    14    20   ar
    27    14    15   ar
    28    15    16   ar
    29    15    34    1
    30    16    17   ar
    31    16    35    1
    32    17    18   ar
    33    18    19    1
    34    18    20   ar
    35    19    36    1
    36    19    37    1
    37    19    38    1
    38    21    22   ar
    39    21    39    1
    40    22    40    1
    41    23    24    1
    42    23    41    1
    43    24    25    1
    44    25    26    2
    45    25    42    1
    46    26    43    1
@<TRIPOS>SUBSTRUCTURE
     1 ZINC000080099940        1 TEMP              0 ****  ****    0 ROOT


##########                                Name:    ZINC000632456679
##########                DOCK_Rotatable_Bonds:                   6
##########                         Heavy_Atoms:                  24
##########                    Molecular_Weight:              374.82
##########                DOCK_Rotatable_Bonds:                   6
##########                       Formal_Charge:          -0.0299999
##########                     HBond_Acceptors:                   9
##########                        HBond_Donors:                   1
##########                         Heavy_Atoms:                  24
##########                          Grid_Score:          -28.499807
##########                     Grid_vdw_energy:          -28.934574
##########                      Grid_es_energy:            0.434767
##########           Internal_energy_repulsive:           35.720642

@<TRIPOS>MOLECULE
ZINC000632456679
 40 41 1 0 0
SMALL
USER_CHARGES


@<TRIPOS>ATOM
      1 C1        -12.4503   -2.1809   55.2548 C.3     1  ZINC000632456679   -0.1600
      2 C2        -11.9938   -2.4027   53.8114 C.3     1  ZINC000632456679    0.1900
      3 C3        -11.8302   -3.9018   53.5529 C.3     1  ZINC000632456679   -0.2000
      4 C4        -13.0396   -1.8308   52.8523 C.3     1  ZINC000632456679   -0.6300
      5 S5        -14.6986   -2.1078   53.5317 S.o2    1  ZINC000632456679    2.4100
      6 C6        -15.7519   -1.7936   52.0886 C.3     1  ZINC000632456679   -0.6600
      7 O7        -14.8183   -3.4777   53.8899 O.2     1  ZINC000632456679   -0.9300
      8 O8        -14.9601   -1.1097   54.5089 O.2     1  ZINC000632456679   -0.9300
      9 N9        -10.7119   -1.7272   53.5955 N.am    1  ZINC000632456679   -0.7200
     10 C10       -10.1841   -1.6631   52.3570 C.2     1  ZINC000632456679    0.6200
     11 O11       -10.7712   -2.1673   51.4193 O.2     1  ZINC000632456679   -0.5000
     12 C12        -8.8941   -0.9813   52.1393 C.2     1  ZINC000632456679   -0.0900
     13 C13        -8.4724    0.1794   52.7235 C.2     1  ZINC000632456679   -0.1300
     14 C14        -7.1782    0.3861   52.1716 C.2     1  ZINC000632456679    0.0400
     15 C15        -6.2559    1.5117   52.4630 C.ar    1  ZINC000632456679   -0.0500
     16 C16        -6.7495    2.6996   52.9976 C.ar    1  ZINC000632456679   -0.0600
     17 C17        -5.8880    3.7438   53.2669 C.ar    1  ZINC000632456679   -0.1100
     18 C18        -4.5356    3.6144   53.0070 C.ar    1  ZINC000632456679   -0.0700
     19 C19        -4.0370    2.4379   52.4760 C.ar    1  ZINC000632456679   -0.0800
     20 Cl20       -2.3384    2.2839   52.1527 Cl      1  ZINC000632456679   -0.0400
     21 C21        -4.8903    1.3821   52.2077 C.ar    1  ZINC000632456679    0.1400
     22 F22        -4.4040    0.2330   51.6895 F       1  ZINC000632456679   -0.1100
     23 N23        -6.9622   -0.6151   51.3558 N.2     1  ZINC000632456679   -0.3200
     24 O24        -7.8957   -1.3824   51.3297 O.3     1  ZINC000632456679    0.1400
     25 H25       -11.7053   -2.5883   55.9382 H       1  ZINC000632456679    0.0900
     26 H26       -12.5668   -1.1130   55.4390 H       1  ZINC000632456679    0.0600
     27 H27       -13.4041   -2.6835   55.4155 H       1  ZINC000632456679    0.0700
     28 H28       -12.7840   -4.4043   53.7135 H       1  ZINC000632456679    0.0800
     29 H29       -11.5051   -4.0598   52.5245 H       1  ZINC000632456679    0.0800
     30 H30       -11.0852   -4.3092   54.2363 H       1  ZINC000632456679    0.0900
     31 H31       -12.8720   -0.7611   52.7276 H       1  ZINC000632456679    0.1600
     32 H32       -12.9557   -2.3269   51.8853 H       1  ZINC000632456679    0.1400
     33 H33       -15.4941   -2.4914   51.2919 H       1  ZINC000632456679    0.1300
     34 H34       -16.7975   -1.9286   52.3656 H       1  ZINC000632456679    0.1300
     35 H35       -15.5971   -0.7721   51.7412 H       1  ZINC000632456679    0.1300
     36 H36       -10.2430   -1.3260   54.3439 H       1  ZINC000632456679    0.4200
     37 H37        -8.9990    0.7960   53.4371 H       1  ZINC000632456679    0.1900
     38 H38        -7.8050    2.8035   53.2009 H       1  ZINC000632456679    0.1500
     39 H39        -6.2710    4.6646   53.6815 H       1  ZINC000632456679    0.1500
     40 H40        -3.8663    4.4351   53.2191 H       1  ZINC000632456679    0.1500
@<TRIPOS>BOND
     1     1     2    1
     2     1    25    1
     3     1    26    1
     4     1    27    1
     5     2     3    1
     6     2     4    1
     7     2     9    1
     8     3    28    1
     9     3    29    1
    10     3    30    1
    11     4     5    1
    12     4    31    1
    13     4    32    1
    14     5     6    1
    15     5     7    2
    16     5     8    2
    17     6    33    1
    18     6    34    1
    19     6    35    1
    20     9    10   am
    21     9    36    1
    22    10    11    2
    23    10    12    1
    24    12    24    1
    25    12    13    2
    26    13    14    1
    27    13    37    1
    28    14    15    1
    29    14    23    2
    30    15    21   ar
    31    15    16   ar
    32    16    17   ar
    33    16    38    1
    34    17    18   ar
    35    17    39    1
    36    18    19   ar
    37    18    40    1
    38    19    20    1
    39    19    21   ar
    40    21    22    1
    41    23    24    1
@<TRIPOS>SUBSTRUCTURE
     1 ZINC000632456679        1 TEMP              0 ****  ****    0 ROOT


##########                                Name:    ZINC000899027326
##########                DOCK_Rotatable_Bonds:                   5
##########                         Heavy_Atoms:                  22
##########                    Molecular_Weight:             346.169
##########                DOCK_Rotatable_Bonds:                   5
##########                       Formal_Charge:           0.0300005
##########                     HBond_Acceptors:                   9
##########                        HBond_Donors:                   1
##########                         Heavy_Atoms:                  22
##########                          Grid_Score:          -28.491417
##########                     Grid_vdw_energy:          -27.225969
##########                      Grid_es_energy:           -1.265447
##########           Internal_energy_repulsive:            6.729878

@<TRIPOS>MOLECULE
ZINC000899027326
 35 36 1 0 0
SMALL
USER_CHARGES


@<TRIPOS>ATOM
      1 C1          0.0998   -0.2297   46.6432 C.3     1  ZINC000899027326   -0.1500
      2 C2          0.2183    1.0407   47.4876 C.3     1  ZINC000899027326    0.1100
      3 H3          0.5730    1.8726   46.8790 H       1  ZINC000899027326    0.1400
      4 C4         -1.1119    1.3796   48.1307 C.2     1  ZINC000899027326    0.5300
      5 O5         -2.1525    1.6412   47.5664 O.2     1  ZINC000899027326   -0.4500
      6 N6         -0.8972    1.3289   49.4602 N.am    1  ZINC000899027326   -0.3700
      7 N7         -1.8803    1.5799   50.4263 N.am    1  ZINC000899027326   -0.5000
      8 C8         -1.9744    2.8002   50.9907 C.2     1  ZINC000899027326    0.5200
      9 O9         -1.2089    3.6813   50.6614 O.2     1  ZINC000899027326   -0.4800
     10 C10        -3.0307    3.0697   52.0312 C.3     1  ZINC000899027326    0.0500
     11 O11        -4.1663    2.2382   51.7836 O.3     1  ZINC000899027326   -0.2700
     12 C12        -5.2083    2.3424   52.6504 C.ar    1  ZINC000899027326    0.1400
     13 C13        -5.1537    3.2520   53.6955 C.ar    1  ZINC000899027326   -0.1900
     14 C14        -6.2139    3.3567   54.5757 C.ar    1  ZINC000899027326   -0.0600
     15 C15        -7.3296    2.5548   54.4152 C.ar    1  ZINC000899027326   -0.0600
     16 Cl16       -8.6601    2.6892   55.5222 Cl      1  ZINC000899027326   -0.0500
     17 C17        -7.3869    1.6461   53.3730 C.ar    1  ZINC000899027326   -0.0600
     18 C18        -6.3312    1.5423   52.4871 C.ar    1  ZINC000899027326   -0.0500
     19 Cl19       -6.4030    0.4023   51.1796 Cl      1  ZINC000899027326   -0.0300
     20 C20         0.3706    1.0084   49.7435 C.2     1  ZINC000899027326    0.7000
     21 O21         0.8039    0.9018   50.8740 O.2     1  ZINC000899027326   -0.5200
     22 N22         1.1150    0.8187   48.6351 N.am    1  ZINC000899027326   -0.6200
     23 C23         2.5342    0.4587   48.5848 C.3     1  ZINC000899027326    0.1200
     24 H24        -0.2675   -1.0463   47.2649 H       1  ZINC000899027326    0.0700
     25 H25        -0.5960   -0.0567   45.8223 H       1  ZINC000899027326    0.0900
     26 H26         1.0785   -0.4912   46.2410 H       1  ZINC000899027326    0.0900
     27 H27        -2.4933    0.8755   50.6889 H       1  ZINC000899027326    0.4300
     28 H28        -2.6297    2.8518   53.0210 H       1  ZINC000899027326    0.1100
     29 H29        -3.3297    4.1168   51.9827 H       1  ZINC000899027326    0.1100
     30 H30        -4.2828    3.8782   53.8217 H       1  ZINC000899027326    0.1500
     31 H31        -6.1712    4.0649   55.3899 H       1  ZINC000899027326    0.1500
     32 H32        -8.2589    1.0209   53.2493 H       1  ZINC000899027326    0.1500
     33 H33         2.9206    0.3620   49.5994 H       1  ZINC000899027326    0.0900
     34 H34         2.6501   -0.4895   48.0601 H       1  ZINC000899027326    0.0700
     35 H35         3.0877    1.2358   48.0577 H       1  ZINC000899027326    0.0700
@<TRIPOS>BOND
     1     1     2    1
     2     1    24    1
     3     1    25    1
     4     1    26    1
     5     2     3    1
     6     2    22    1
     7     2     4    1
     8     4     5    2
     9     4     6   am
    10     6     7    1
    11     6    20   am
    12     7     8   am
    13     7    27    1
    14     8     9    2
    15     8    10    1
    16    10    11    1
    17    10    28    1
    18    10    29    1
    19    11    12    1
    20    12    18   ar
    21    12    13   ar
    22    13    14   ar
    23    13    30    1
    24    14    15   ar
    25    14    31    1
    26    15    16    1
    27    15    17   ar
    28    17    18   ar
    29    17    32    1
    30    18    19    1
    31    20    21    2
    32    20    22   am
    33    22    23    1
    34    23    33    1
    35    23    34    1
    36    23    35    1
@<TRIPOS>SUBSTRUCTURE
     1 ZINC000899027326        1 TEMP              0 ****  ****    0 ROOT


##########                                Name:    ZINC000938043669
##########                DOCK_Rotatable_Bonds:                   7
##########                         Heavy_Atoms:                  27
##########                    Molecular_Weight:             372.439
##########                DOCK_Rotatable_Bonds:                   7
##########                       Formal_Charge:           0.0499999
##########                     HBond_Acceptors:                   6
##########                        HBond_Donors:                   1
##########                         Heavy_Atoms:                  27
##########                          Grid_Score:          -28.458437
##########                     Grid_vdw_energy:          -26.494719
##########                      Grid_es_energy:           -1.963718
##########           Internal_energy_repulsive:           14.990502

@<TRIPOS>MOLECULE
ZINC000938043669
 52 55 1 0 0
SMALL
USER_CHARGES


@<TRIPOS>ATOM
      1 O1         -2.7877    6.1884   53.7151 O.2     1  ZINC000938043669   -0.5000
      2 C2         -3.3053    5.0930   53.6575 C.2     1  ZINC000938043669    0.5300
      3 C3         -4.4704    4.7622   54.5542 C.3     1  ZINC000938043669    0.0500
      4 O4         -5.6381    4.5486   53.7586 O.3     1  ZINC000938043669   -0.2800
      5 C5         -6.5334    3.6305   54.2104 C.ar    1  ZINC000938043669    0.0900
      6 C6         -7.0125    2.6493   53.3566 C.ar    1  ZINC000938043669   -0.1800
      7 C7         -7.9222    1.7165   53.8181 C.ar    1  ZINC000938043669   -0.0900
      8 C8         -8.3551    1.7607   55.1300 C.ar    1  ZINC000938043669   -0.1300
      9 C9         -7.8800    2.7383   55.9852 C.ar    1  ZINC000938043669   -0.1100
     10 C10        -6.9653    3.6707   55.5305 C.ar    1  ZINC000938043669    0.0800
     11 F11        -6.5009    4.6257   56.3655 F       1  ZINC000938043669   -0.1300
     12 N12        -2.8420    4.1736   52.7878 N.am    1  ZINC000938043669   -0.6200
     13 C13        -3.3763    2.8154   52.6111 C.3     1  ZINC000938043669    0.1000
     14 C14        -2.5533    2.1410   51.4934 C.3     1  ZINC000938043669   -0.1400
     15 C15        -1.9718    3.3493   50.7128 C.3     1  ZINC000938043669    0.1300
     16 H16        -2.6976    3.7392   49.9993 H       1  ZINC000938043669    0.1100
     17 N17        -0.7213    2.9875   50.0408 N.am    1  ZINC000938043669   -0.7200
     18 C18        -0.7515    2.2551   48.9098 C.2     1  ZINC000938043669    0.5200
     19 O19        -1.8139    1.8967   48.4476 O.2     1  ZINC000938043669   -0.5200
     20 C20         0.5350    1.8815   48.2195 C.3     1  ZINC000938043669   -0.1000
     21 H21         1.1923    1.3750   48.9260 H       1  ZINC000938043669    0.1000
     22 C22         1.2218    3.1473   47.7016 C.3     1  ZINC000938043669   -0.1100
     23 C23         1.3780    3.0597   46.1780 C.3     1  ZINC000938043669   -0.0600
     24 H24         1.8189    3.9744   45.7815 H       1  ZINC000938043669    0.0800
     25 C25        -0.0011    2.8225   45.5808 C.2     1  ZINC000938043669   -0.1800
     26 C26        -0.5985    1.7217   46.0311 C.2     1  ZINC000938043669   -0.1300
     27 C27         0.2305    0.9452   47.0430 C.3     1  ZINC000938043669   -0.0400
     28 H28        -0.3006    0.0528   47.3743 H       1  ZINC000938043669    0.0900
     29 C29         1.5575    0.5702   46.3691 C.3     1  ZINC000938043669   -0.1200
     30 C30         2.2589    1.8455   45.8524 C.3     1  ZINC000938043669   -0.1100
     31 C31        -1.7195    4.3655   51.8514 C.3     1  ZINC000938043669    0.1000
     32 H32        -4.2472    3.8586   55.1216 H       1  ZINC000938043669    0.1000
     33 H33        -4.6459    5.5892   55.2421 H       1  ZINC000938043669    0.1000
     34 H34        -6.6754    2.6137   52.3312 H       1  ZINC000938043669    0.1400
     35 H35        -8.2957    0.9523   53.1525 H       1  ZINC000938043669    0.1300
     36 H36        -9.0660    1.0307   55.4879 H       1  ZINC000938043669    0.1400
     37 H37        -8.2201    2.7710   57.0097 H       1  ZINC000938043669    0.1500
     38 H38        -3.2724    2.2526   53.5389 H       1  ZINC000938043669    0.0800
     39 H39        -4.4257    2.8647   52.3206 H       1  ZINC000938043669    0.0800
     40 H40        -1.7529    1.5339   51.9164 H       1  ZINC000938043669    0.0900
     41 H41        -3.1961    1.5397   50.8504 H       1  ZINC000938043669    0.1000
     42 H42         0.1284    3.2753   50.4097 H       1  ZINC000938043669    0.4000
     43 H43         0.6173    4.0180   47.9551 H       1  ZINC000938043669    0.0700
     44 H44         2.2050    3.2414   48.1626 H       1  ZINC000938043669    0.0800
     45 H45        -0.4535    3.4858   44.8583 H       1  ZINC000938043669    0.1200
     46 H46        -1.5807    1.4092   45.7086 H       1  ZINC000938043669    0.1200
     47 H47         2.2054    0.0759   47.0929 H       1  ZINC000938043669    0.0700
     48 H48         1.3633   -0.1047   45.5354 H       1  ZINC000938043669    0.0700
     49 H49         2.3921    1.7746   44.7729 H       1  ZINC000938043669    0.0700
     50 H50         3.2323    1.9445   46.3326 H       1  ZINC000938043669    0.0700
     51 H51        -1.7181    5.3823   51.4589 H       1  ZINC000938043669    0.0900
     52 H52        -0.7749    4.1493   52.3505 H       1  ZINC000938043669    0.0700
@<TRIPOS>BOND
     1     1     2    2
     2     2     3    1
     3     2    12   am
     4     3     4    1
     5     3    32    1
     6     3    33    1
     7     4     5    1
     8     5    10   ar
     9     5     6   ar
    10     6     7   ar
    11     6    34    1
    12     7     8   ar
    13     7    35    1
    14     8     9   ar
    15     8    36    1
    16     9    10   ar
    17     9    37    1
    18    10    11    1
    19    12    31    1
    20    12    13    1
    21    13    14    1
    22    13    38    1
    23    13    39    1
    24    14    15    1
    25    14    40    1
    26    14    41    1
    27    15    16    1
    28    15    17    1
    29    15    31    1
    30    17    18   am
    31    17    42    1
    32    18    19    2
    33    18    20    1
    34    20    21    1
    35    20    27    1
    36    20    22    1
    37    22    23    1
    38    22    43    1
    39    22    44    1
    40    23    24    1
    41    23    30    1
    42    23    25    1
    43    25    26    2
    44    25    45    1
    45    26    27    1
    46    26    46    1
    47    27    28    1
    48    27    29    1
    49    29    30    1
    50    29    47    1
    51    29    48    1
    52    30    49    1
    53    30    50    1
    54    31    51    1
    55    31    52    1
@<TRIPOS>SUBSTRUCTURE
     1 ZINC000938043669        1 TEMP              0 ****  ****    0 ROOT


##########                                Name:    ZINC000546115054
##########                DOCK_Rotatable_Bonds:                  10
##########                         Heavy_Atoms:                  26
##########                    Molecular_Weight:             363.457
##########                DOCK_Rotatable_Bonds:                  10
##########                       Formal_Charge:        -4.39584e-07
##########                     HBond_Acceptors:                   7
##########                        HBond_Donors:                   2
##########                         Heavy_Atoms:                  26
##########                          Grid_Score:          -28.455011
##########                     Grid_vdw_energy:          -27.980850
##########                      Grid_es_energy:           -0.474161
##########           Internal_energy_repulsive:           17.219868

@<TRIPOS>MOLECULE
ZINC000546115054
 55 56 1 0 0
SMALL
USER_CHARGES


@<TRIPOS>ATOM
      1 C1          2.6981    0.2511   50.8660 C.3     1  ZINC000546115054   -0.1500
      2 C2          3.1254    0.5093   49.4197 C.3     1  ZINC000546115054    0.0600
      3 O3          2.2061    1.4150   48.8059 O.3     1  ZINC000546115054   -0.3700
      4 C4          1.1231    0.7740   48.1289 C.3     1  ZINC000546115054    0.0500
      5 H5          1.0078   -0.2420   48.5066 H       1  ZINC000546115054    0.0700
      6 C6          1.4125    0.7314   46.6262 C.3     1  ZINC000546115054    0.0400
      7 O7          0.3028    0.1424   45.9452 O.3     1  ZINC000546115054   -0.3700
      8 C8         -0.9228    0.8615   46.0959 C.3     1  ZINC000546115054    0.0600
      9 C9         -1.3060    0.9093   47.5773 C.3     1  ZINC000546115054   -0.1600
     10 C10        -0.1691    1.5600   48.3714 C.3     1  ZINC000546115054    0.1700
     11 H11        -0.0355    2.5897   48.0399 H       1  ZINC000546115054    0.1000
     12 N12        -0.4966    1.5433   49.7992 N.am    1  ZINC000546115054   -0.7300
     13 C13        -1.2798    2.5075   50.3222 C.2     1  ZINC000546115054    0.7200
     14 O14        -1.7133    3.3918   49.6093 O.2     1  ZINC000546115054   -0.5900
     15 N15        -1.5824    2.4912   51.6355 N.am    1  ZINC000546115054   -0.7200
     16 C16        -2.4323    3.5403   52.2044 C.3     1  ZINC000546115054    0.1600
     17 H17        -3.0816    3.9430   51.4270 H       1  ZINC000546115054    0.1200
     18 C18        -3.2871    2.9506   53.3280 C.3     1  ZINC000546115054   -0.1000
     19 C19        -4.6344    2.5564   52.7802 C.ar    1  ZINC000546115054   -0.0800
     20 C20        -4.7681    1.3938   52.0443 C.ar    1  ZINC000546115054   -0.1100
     21 C21        -6.0040    1.0322   51.5418 C.ar    1  ZINC000546115054   -0.1200
     22 C22        -7.1063    1.8330   51.7752 C.ar    1  ZINC000546115054   -0.1200
     23 C23        -6.9728    2.9951   52.5118 C.ar    1  ZINC000546115054   -0.1200
     24 C24        -5.7378    3.3545   53.0181 C.ar    1  ZINC000546115054   -0.1100
     25 C25        -1.5668    4.6431   52.7574 C.2     1  ZINC000546115054    0.5000
     26 O26        -0.3901    4.4413   52.9707 O.2     1  ZINC000546115054   -0.5200
     27 N27        -2.1005    5.8537   53.0147 N.am    1  ZINC000546115054   -0.6200
     28 C28        -3.5222    6.0970   52.7586 C.3     1  ZINC000546115054    0.0800
     29 C29        -1.2587    6.9262   53.5506 C.3     1  ZINC000546115054    0.0700
     30 H30         3.3993   -0.4398   51.3342 H       1  ZINC000546115054    0.0700
     31 H31         2.6925    1.1917   51.4165 H       1  ZINC000546115054    0.0600
     32 H32         1.6982   -0.1826   50.8775 H       1  ZINC000546115054    0.0600
     33 H33         4.1253    0.9430   49.4081 H       1  ZINC000546115054    0.0500
     34 H34         3.1310   -0.4315   48.8691 H       1  ZINC000546115054    0.0500
     35 H35         1.5689    1.7451   46.2573 H       1  ZINC000546115054    0.0600
     36 H36         2.3077    0.1364   46.4451 H       1  ZINC000546115054    0.1000
     37 H37        -0.7970    1.8770   45.7200 H       1  ZINC000546115054    0.0600
     38 H38        -1.7099    0.3603   45.5327 H       1  ZINC000546115054    0.1000
     39 H39        -2.2171    1.4951   47.6991 H       1  ZINC000546115054    0.0900
     40 H40        -1.4715   -0.1038   47.9435 H       1  ZINC000546115054    0.0800
     41 H41        -0.1497    0.8385   50.3682 H       1  ZINC000546115054    0.3900
     42 H42        -1.2376    1.7850   52.2040 H       1  ZINC000546115054    0.4000
     43 H43        -2.7906    2.0717   53.7391 H       1  ZINC000546115054    0.0900
     44 H44        -3.4179    3.6948   54.1136 H       1  ZINC000546115054    0.1100
     45 H45        -3.9069    0.7682   51.8619 H       1  ZINC000546115054    0.1200
     46 H46        -6.1083    0.1243   50.9662 H       1  ZINC000546115054    0.1200
     47 H47        -8.0718    1.5508   51.3819 H       1  ZINC000546115054    0.1200
     48 H48        -7.8341    3.6208   52.6940 H       1  ZINC000546115054    0.1200
     49 H49        -5.6335    4.2625   53.5936 H       1  ZINC000546115054    0.1200
     50 H50        -4.0988    5.8552   53.6515 H       1  ZINC000546115054    0.0600
     51 H51        -3.6710    7.1460   52.5029 H       1  ZINC000546115054    0.0700
     52 H52        -3.8546    5.4705   51.9309 H       1  ZINC000546115054    0.0800
     53 H53        -0.8259    7.4943   52.7272 H       1  ZINC000546115054    0.0600
     54 H54        -1.8640    7.5881   54.1700 H       1  ZINC000546115054    0.0800
     55 H55        -0.4598    6.4945   54.1534 H       1  ZINC000546115054    0.0700
@<TRIPOS>BOND
     1     1     2    1
     2     1    30    1
     3     1    31    1
     4     1    32    1
     5     2     3    1
     6     2    33    1
     7     2    34    1
     8     3     4    1
     9     4     5    1
    10     4    10    1
    11     4     6    1
    12     6     7    1
    13     6    35    1
    14     6    36    1
    15     7     8    1
    16     8     9    1
    17     8    37    1
    18     8    38    1
    19     9    10    1
    20     9    39    1
    21     9    40    1
    22    10    11    1
    23    10    12    1
    24    12    13   am
    25    12    41    1
    26    13    14    2
    27    13    15   am
    28    15    16    1
    29    15    42    1
    30    16    17    1
    31    16    18    1
    32    16    25    1
    33    18    19    1
    34    18    43    1
    35    18    44    1
    36    19    24   ar
    37    19    20   ar
    38    20    21   ar
    39    20    45    1
    40    21    22   ar
    41    21    46    1
    42    22    23   ar
    43    22    47    1
    44    23    24   ar
    45    23    48    1
    46    24    49    1
    47    25    26    2
    48    25    27   am
    49    27    28    1
    50    27    29    1
    51    28    50    1
    52    28    51    1
    53    28    52    1
    54    29    53    1
    55    29    54    1
    56    29    55    1
@<TRIPOS>SUBSTRUCTURE
     1 ZINC000546115054        1 TEMP              0 ****  ****    0 ROOT


##########                                Name:    ZINC000859202493
##########                DOCK_Rotatable_Bonds:                  11
##########                         Heavy_Atoms:                  25
##########                    Molecular_Weight:             382.404
##########                DOCK_Rotatable_Bonds:                  11
##########                       Formal_Charge:          -0.0200009
##########                     HBond_Acceptors:                  10
##########                        HBond_Donors:                   3
##########                         Heavy_Atoms:                  25
##########                          Grid_Score:          -28.447319
##########                     Grid_vdw_energy:          -28.433197
##########                      Grid_es_energy:           -0.014121
##########           Internal_energy_repulsive:            9.660655

@<TRIPOS>MOLECULE
ZINC000859202493
 46 46 1 0 0
SMALL
USER_CHARGES


@<TRIPOS>ATOM
      1 C1        -15.2620   -1.0805   53.4234 C.3     1  ZINC000859202493   -0.1500
      2 C2        -14.4852   -1.2231   52.1130 C.3     1  ZINC000859202493   -0.1200
      3 C3        -13.0094   -1.4839   52.4208 C.3     1  ZINC000859202493   -0.1000
      4 H4        -12.7023   -0.8749   53.2710 H       1  ZINC000859202493    0.0700
      5 C5        -12.1617   -1.1200   51.2001 C.3     1  ZINC000859202493   -0.1600
      6 C6        -12.8121   -2.9637   52.7558 C.3     1  ZINC000859202493   -0.1200
      7 C7        -12.3040   -3.0980   54.1927 C.3     1  ZINC000859202493    0.1600
      8 H8        -12.8083   -2.3681   54.8261 H       1  ZINC000859202493    0.1000
      9 C9        -10.7953   -2.8457   54.2259 C.3     1  ZINC000859202493    0.0500
     10 O10       -10.1071   -4.0124   53.7704 O.3     1  ZINC000859202493   -0.5700
     11 N11       -12.5841   -4.4488   54.6855 N.am    1  ZINC000859202493   -1.1000
     12 S12       -13.4990   -4.6593   56.0498 S.o2    1  ZINC000859202493    2.6900
     13 O13       -14.7076   -3.9430   55.8368 O.2     1  ZINC000859202493   -0.9500
     14 O14       -13.4608   -6.0481   56.3482 O.2     1  ZINC000859202493   -0.9500
     15 C15       -12.6632   -3.8437   57.3693 C.ar    1  ZINC000859202493   -0.6600
     16 C16       -11.3591   -4.1853   57.6764 C.ar    1  ZINC000859202493   -0.0300
     17 C17       -10.6998   -3.5478   58.7117 C.ar    1  ZINC000859202493   -0.1100
     18 C18       -11.3423   -2.5673   59.4416 C.ar    1  ZINC000859202493   -0.0600
     19 C19       -12.6521   -2.2216   59.1352 C.ar    1  ZINC000859202493    0.1200
     20 N20       -13.3058   -1.2282   59.8726 N.am    1  ZINC000859202493   -0.6500
     21 C21       -13.8874   -1.5349   61.0491 C.2     1  ZINC000859202493    0.4800
     22 O22       -13.8441   -2.6721   61.4687 O.2     1  ZINC000859202493   -0.4500
     23 C23       -14.5914   -0.4650   61.8432 C.3     1  ZINC000859202493    0.4600
     24 F24       -14.8518    0.6336   61.0171 F       1  ZINC000859202493   -0.1500
     25 F25       -15.7972   -0.9707   62.3406 F       1  ZINC000859202493   -0.1600
     26 F26       -13.7786   -0.0646   62.9091 F       1  ZINC000859202493   -0.1600
     27 C27       -13.3096   -2.8598   58.0919 C.ar    1  ZINC000859202493   -0.0300
     28 H28       -16.3133   -0.8947   53.2042 H       1  ZINC000859202493    0.0500
     29 H29       -15.1686   -1.9990   54.0029 H       1  ZINC000859202493    0.0500
     30 H30       -14.8574   -0.2464   53.9967 H       1  ZINC000859202493    0.0600
     31 H31       -14.8898   -2.0572   51.5397 H       1  ZINC000859202493    0.0600
     32 H32       -14.5786   -0.3047   51.5335 H       1  ZINC000859202493    0.0600
     33 H33       -11.1103   -1.3059   51.4194 H       1  ZINC000859202493    0.0500
     34 H34       -12.4688   -1.7291   50.3499 H       1  ZINC000859202493    0.0600
     35 H35       -12.3023   -0.0658   50.9615 H       1  ZINC000859202493    0.0600
     36 H36       -13.7621   -3.4887   52.6558 H       1  ZINC000859202493    0.0800
     37 H37       -12.0835   -3.3974   52.0707 H       1  ZINC000859202493    0.0800
     38 H38       -10.5531   -2.0044   53.5765 H       1  ZINC000859202493    0.0600
     39 H39       -10.4874   -2.6175   55.2462 H       1  ZINC000859202493    0.0600
     40 H40        -9.1674   -4.0286   53.9976 H       1  ZINC000859202493    0.3800
     41 H41       -12.2339   -5.2199   54.2127 H       1  ZINC000859202493    0.4200
     42 H42       -10.8545   -4.9517   57.1071 H       1  ZINC000859202493    0.1500
     43 H43        -9.6813   -3.8174   58.9496 H       1  ZINC000859202493    0.1400
     44 H44       -10.8269   -2.0702   60.2501 H       1  ZINC000859202493    0.1400
     45 H45       -13.3403   -0.3187   59.5371 H       1  ZINC000859202493    0.4200
     46 H46       -14.3281   -2.5932   57.8512 H       1  ZINC000859202493    0.1500
@<TRIPOS>BOND
     1     1     2    1
     2     1    28    1
     3     1    29    1
     4     1    30    1
     5     2     3    1
     6     2    31    1
     7     2    32    1
     8     3     4    1
     9     3     5    1
    10     3     6    1
    11     5    33    1
    12     5    34    1
    13     5    35    1
    14     6     7    1
    15     6    36    1
    16     6    37    1
    17     7     8    1
    18     7     9    1
    19     7    11    1
    20     9    10    1
    21     9    38    1
    22     9    39    1
    23    10    40    1
    24    11    12   am
    25    11    41    1
    26    12    13    2
    27    12    14    2
    28    12    15    1
    29    15    27   ar
    30    15    16   ar
    31    16    17   ar
    32    16    42    1
    33    17    18   ar
    34    17    43    1
    35    18    19   ar
    36    18    44    1
    37    19    20    1
    38    19    27   ar
    39    20    21   am
    40    20    45    1
    41    21    22    2
    42    21    23    1
    43    23    24    1
    44    23    25    1
    45    23    26    1
    46    27    46    1
@<TRIPOS>SUBSTRUCTURE
     1 ZINC000859202493        1 TEMP              0 ****  ****    0 ROOT


##########                                Name:    ZINC000482139334
##########                DOCK_Rotatable_Bonds:                   4
##########                         Heavy_Atoms:                  26
##########                    Molecular_Weight:             348.376
##########                DOCK_Rotatable_Bonds:                   4
##########                       Formal_Charge:           0.0300002
##########                     HBond_Acceptors:                   5
##########                        HBond_Donors:                   1
##########                         Heavy_Atoms:                  26
##########                          Grid_Score:          -28.400620
##########                     Grid_vdw_energy:          -28.321074
##########                      Grid_es_energy:           -0.079545
##########           Internal_energy_repulsive:           11.812309

@<TRIPOS>MOLECULE
ZINC000482139334
 43 47 1 0 0
SMALL
USER_CHARGES


@<TRIPOS>ATOM
      1 O1        -12.4430   -3.6540   53.4121 O.2     1  ZINC000482139334   -0.4800
      2 C2        -11.5409   -2.9158   53.7468 C.2     1  ZINC000482139334    0.5500
      3 N3        -11.4606   -2.4849   55.0213 N.am    1  ZINC000482139334   -0.6100
      4 C4        -12.4123   -2.8808   55.9481 C.2     1  ZINC000482139334    0.4300
      5 N5        -12.5955   -2.3432   57.1267 N.2     1  ZINC000482139334   -0.4800
      6 C6        -13.6147   -2.9961   57.7443 C.2     1  ZINC000482139334    0.0400
      7 C7        -14.1509   -2.7082   59.0973 C.ar    1  ZINC000482139334   -0.0500
      8 C8        -13.2853   -2.5932   60.1826 C.ar    1  ZINC000482139334   -0.0800
      9 C9        -13.7893   -2.3247   61.4395 C.ar    1  ZINC000482139334   -0.1300
     10 C10       -15.1512   -2.1700   61.6237 C.ar    1  ZINC000482139334   -0.0800
     11 C11       -16.0173   -2.2832   60.5512 C.ar    1  ZINC000482139334   -0.1600
     12 C12       -15.5241   -2.5457   59.2869 C.ar    1  ZINC000482139334    0.1300
     13 F13       -16.3702   -2.6561   58.2394 F       1  ZINC000482139334   -0.1200
     14 C14       -14.0511   -3.9576   56.8966 C.2     1  ZINC000482139334   -0.0600
     15 O15       -13.2990   -3.8737   55.7795 O.3     1  ZINC000482139334   -0.1800
     16 C16       -10.5062   -2.4853   52.7393 C.3     1  ZINC000482139334   -0.1800
     17 H17        -9.6439   -3.1446   52.6399 H       1  ZINC000482139334    0.1400
     18 C18       -11.0010   -1.7727   51.4776 C.3     1  ZINC000482139334   -0.1200
     19 C19       -10.2726   -0.9897   52.5653 C.3     1  ZINC000482139334   -0.0500
     20 C20       -11.0135    0.0390   53.4358 C.3     1  ZINC000482139334   -0.0700
     21 C21       -10.2770    1.3519   53.0884 C.3     1  ZINC000482139334   -0.0900
     22 C22        -8.8928    0.9264   52.6459 C.ar    1  ZINC000482139334   -0.0800
     23 C23        -7.7268    1.6615   52.5180 C.ar    1  ZINC000482139334   -0.1100
     24 C24        -6.5637    1.0528   52.0883 C.ar    1  ZINC000482139334   -0.1100
     25 C25        -6.5630   -0.2955   51.7844 C.ar    1  ZINC000482139334   -0.1200
     26 C26        -7.7249   -1.0314   51.9114 C.ar    1  ZINC000482139334   -0.1000
     27 C27        -8.8923   -0.4242   52.3423 C.ar    1  ZINC000482139334   -0.0700
     28 H28       -10.7369   -1.8976   55.2901 H       1  ZINC000482139334    0.4400
     29 H29       -12.2214   -2.7143   60.0411 H       1  ZINC000482139334    0.1300
     30 H30       -13.1183   -2.2355   62.2811 H       1  ZINC000482139334    0.1400
     31 H31       -15.5402   -1.9604   62.6093 H       1  ZINC000482139334    0.1400
     32 H32       -17.0799   -2.1621   60.7010 H       1  ZINC000482139334    0.1400
     33 H33       -14.8528   -4.6580   57.0790 H       1  ZINC000482139334    0.2200
     34 H34       -10.4637   -1.9625   50.5485 H       1  ZINC000482139334    0.1200
     35 H35       -12.0749   -1.6152   51.3766 H       1  ZINC000482139334    0.1100
     36 H36       -12.0652    0.0984   53.1561 H       1  ZINC000482139334    0.0800
     37 H37       -10.9050   -0.1984   54.4942 H       1  ZINC000482139334    0.0900
     38 H38       -10.7902    1.8701   52.2785 H       1  ZINC000482139334    0.0800
     39 H39       -10.2124    1.9930   53.9676 H       1  ZINC000482139334    0.0800
     40 H40        -7.7267    2.7152   52.7548 H       1  ZINC000482139334    0.1200
     41 H41        -5.6561    1.6298   51.9895 H       1  ZINC000482139334    0.1300
     42 H42        -5.6547   -0.7732   51.4477 H       1  ZINC000482139334    0.1300
     43 H43        -7.7230   -2.0849   51.6732 H       1  ZINC000482139334    0.1200
@<TRIPOS>BOND
     1     1     2    2
     2     2     3   am
     3     2    16    1
     4     3     4    1
     5     3    28    1
     6     4    15    1
     7     4     5    2
     8     5     6    1
     9     6     7    1
    10     6    14    2
    11     7    12   ar
    12     7     8   ar
    13     8     9   ar
    14     8    29    1
    15     9    10   ar
    16     9    30    1
    17    10    11   ar
    18    10    31    1
    19    11    12   ar
    20    11    32    1
    21    12    13    1
    22    14    15    1
    23    14    33    1
    24    16    17    1
    25    16    19    1
    26    16    18    1
    27    18    19    1
    28    18    34    1
    29    18    35    1
    30    19    27    1
    31    19    20    1
    32    20    21    1
    33    20    36    1
    34    20    37    1
    35    21    22    1
    36    21    38    1
    37    21    39    1
    38    22    27   ar
    39    22    23   ar
    40    23    24   ar
    41    23    40    1
    42    24    25   ar
    43    24    41    1
    44    25    26   ar
    45    25    42    1
    46    26    27   ar
    47    26    43    1
@<TRIPOS>SUBSTRUCTURE
     1 ZINC000482139334        1 TEMP              0 ****  ****    0 ROOT


##########                                Name:    ZINC000541315701
##########                DOCK_Rotatable_Bonds:                   4
##########                         Heavy_Atoms:                  25
##########                    Molecular_Weight:             422.709
##########                DOCK_Rotatable_Bonds:                   4
##########                       Formal_Charge:           0.0300003
##########                     HBond_Acceptors:                   6
##########                        HBond_Donors:                   0
##########                         Heavy_Atoms:                  25
##########                          Grid_Score:          -28.399424
##########                     Grid_vdw_energy:          -28.066240
##########                      Grid_es_energy:           -0.333184
##########           Internal_energy_repulsive:           18.777367

@<TRIPOS>MOLECULE
ZINC000541315701
 42 44 1 0 0
SMALL
USER_CHARGES


@<TRIPOS>ATOM
      1 C1        -10.7933   -3.1129   57.2892 C.3     1  ZINC000541315701    0.0800
      2 N2        -12.0322   -2.4783   56.8324 N.am    1  ZINC000541315701   -0.5700
      3 C3        -12.0742   -1.8698   55.6306 C.2     1  ZINC000541315701    0.5400
      4 O4        -13.0998   -1.3445   55.2524 O.2     1  ZINC000541315701   -0.5000
      5 C5        -10.8468   -1.8423   54.7566 C.3     1  ZINC000541315701   -0.1100
      6 H6         -9.9674   -1.5523   55.3317 H       1  ZINC000541315701    0.1300
      7 C7        -10.6298   -3.2077   54.0642 C.3     1  ZINC000541315701   -0.1500
      8 C8        -11.3240   -3.0605   52.7282 C.2     1  ZINC000541315701    0.5200
      9 O9        -11.6303   -3.9805   51.9996 O.2     1  ZINC000541315701   -0.5200
     10 N10       -11.5521   -1.7621   52.4662 N.am    1  ZINC000541315701   -0.6100
     11 C11       -12.2161   -1.2669   51.2578 C.3     1  ZINC000541315701    0.0900
     12 C12       -11.0505   -0.9034   53.5469 C.3     1  ZINC000541315701    0.1900
     13 H13       -11.7825   -0.1322   53.7865 H       1  ZINC000541315701    0.1100
     14 C14        -9.7416   -0.2727   53.1469 C.ar    1  ZINC000541315701   -0.0900
     15 C15        -9.0081   -0.8057   52.1036 C.ar    1  ZINC000541315701   -0.1000
     16 C16        -7.8074   -0.2274   51.7356 C.ar    1  ZINC000541315701   -0.1000
     17 C17        -7.3397    0.8837   52.4112 C.ar    1  ZINC000541315701   -0.1000
     18 C18        -8.0735    1.4178   53.4556 C.ar    1  ZINC000541315701   -0.0300
     19 Cl19       -7.4870    2.8140   54.3043 Cl      1  ZINC000541315701   -0.0600
     20 C20        -9.2776    0.8421   53.8196 C.ar    1  ZINC000541315701   -0.0900
     21 C21       -13.1678   -2.5038   57.6411 C.ar    1  ZINC000541315701    0.3800
     22 N22       -13.4320   -1.4771   58.4330 N.ar    1  ZINC000541315701   -0.4700
     23 C23       -14.4957   -1.4605   59.2136 C.ar    1  ZINC000541315701    0.1300
     24 C24       -15.3776   -2.5226   59.2317 C.ar    1  ZINC000541315701   -0.1600
     25 C25       -15.1373   -3.6199   58.4157 C.ar    1  ZINC000541315701   -0.0400
     26 C26       -14.0160   -3.6059   57.6040 C.ar    1  ZINC000541315701   -0.1300
     27 Br27      -13.6352   -5.0707   56.4702 Br      1  ZINC000541315701   -0.0200
     28 H28        -9.9379   -2.5457   56.9223 H       1  ZINC000541315701    0.0900
     29 H29       -10.7757   -3.1329   58.3790 H       1  ZINC000541315701    0.0800
     30 H30       -10.7447   -4.1323   56.9064 H       1  ZINC000541315701    0.0700
     31 H31        -9.5660   -3.3987   53.9224 H       1  ZINC000541315701    0.1200
     32 H32       -11.0878   -4.0076   54.6461 H       1  ZINC000541315701    0.1100
     33 H33       -12.4874   -2.1090   50.6213 H       1  ZINC000541315701    0.0900
     34 H34       -13.1155   -0.7176   51.5365 H       1  ZINC000541315701    0.0700
     35 H35       -11.5395   -0.6054   50.7167 H       1  ZINC000541315701    0.0600
     36 H36        -9.3729   -1.6746   51.5759 H       1  ZINC000541315701    0.1300
     37 H37        -7.2346   -0.6443   50.9204 H       1  ZINC000541315701    0.1400
     38 H38        -6.4014    1.3350   52.1241 H       1  ZINC000541315701    0.1400
     39 H39        -9.8508    1.2585   54.6347 H       1  ZINC000541315701    0.1400
     40 H40       -14.6786   -0.6050   59.8470 H       1  ZINC000541315701    0.1700
     41 H41       -16.2455   -2.5002   59.8741 H       1  ZINC000541315701    0.1500
     42 H42       -15.8118   -4.4632   58.4114 H       1  ZINC000541315701    0.1500
@<TRIPOS>BOND
     1     1     2    1
     2     1    28    1
     3     1    29    1
     4     1    30    1
     5     2     3   am
     6     2    21    1
     7     3     4    2
     8     3     5    1
     9     5     6    1
    10     5    12    1
    11     5     7    1
    12     7     8    1
    13     7    31    1
    14     7    32    1
    15     8     9    2
    16     8    10   am
    17    10    11    1
    18    10    12    1
    19    11    33    1
    20    11    34    1
    21    11    35    1
    22    12    13    1
    23    12    14    1
    24    14    20   ar
    25    14    15   ar
    26    15    16   ar
    27    15    36    1
    28    16    17   ar
    29    16    37    1
    30    17    18   ar
    31    17    38    1
    32    18    19    1
    33    18    20   ar
    34    20    39    1
    35    21    26   ar
    36    21    22   ar
    37    22    23   ar
    38    23    24   ar
    39    23    40    1
    40    24    25   ar
    41    24    41    1
    42    25    26   ar
    43    25    42    1
    44    26    27    1
@<TRIPOS>SUBSTRUCTURE
     1 ZINC000541315701        1 TEMP              0 ****  ****    0 ROOT


##########                                Name:    ZINC001318556452
##########                DOCK_Rotatable_Bonds:                   4
##########                         Heavy_Atoms:                  26
##########                    Molecular_Weight:             368.456
##########                DOCK_Rotatable_Bonds:                   4
##########                       Formal_Charge:          -0.0200005
##########                     HBond_Acceptors:                   6
##########                        HBond_Donors:                   1
##########                         Heavy_Atoms:                  26
##########                          Grid_Score:          -28.379524
##########                     Grid_vdw_energy:          -27.937645
##########                      Grid_es_energy:           -0.441879
##########           Internal_energy_repulsive:           22.058733

@<TRIPOS>MOLECULE
ZINC001318556452
 46 48 1 0 0
SMALL
USER_CHARGES


@<TRIPOS>ATOM
      1 C1         -9.2622    1.1241   55.1531 C.3     1  ZINC001318556452   -0.1300
      2 C2         -9.7712   -0.0306   54.3294 C.ar    1  ZINC001318556452   -0.1000
      3 C3         -9.1939   -0.3160   53.1081 C.ar    1  ZINC001318556452   -0.0500
      4 C4         -8.0543    0.5284   52.5986 C.3     1  ZINC001318556452   -0.4100
      5 S5         -6.6330   -0.5354   52.2260 S.o     1  ZINC001318556452    1.2500
      6 C6         -5.3854    0.6422   51.6368 C.3     1  ZINC001318556452   -0.4900
      7 O7         -6.9734   -1.4300   51.1757 O.2     1  ZINC001318556452   -0.8400
      8 C8         -9.6599   -1.3762   52.3519 C.ar    1  ZINC001318556452   -0.1200
      9 C9        -10.7056   -2.1531   52.8154 C.ar    1  ZINC001318556452   -0.1000
     10 C10       -11.2883   -1.8725   54.0359 C.ar    1  ZINC001318556452   -0.1200
     11 C11       -10.8184   -0.8127   54.8007 C.ar    1  ZINC001318556452    0.1400
     12 N12       -11.4055   -0.5263   56.0366 N.am    1  ZINC001318556452   -0.6600
     13 C13       -11.1597   -1.3181   57.0992 C.2     1  ZINC001318556452    0.5600
     14 O14       -10.4277   -2.2809   56.9829 O.2     1  ZINC001318556452   -0.5000
     15 C15       -11.7824   -1.0143   58.4099 C.2     1  ZINC001318556452   -0.0300
     16 C16       -11.2923   -0.0144   59.2007 C.2     1  ZINC001318556452   -0.1600
     17 C17       -11.9278    0.2614   60.4869 C.2     1  ZINC001318556452    0.5300
     18 O18       -11.4911    1.1531   61.1928 O.2     1  ZINC001318556452   -0.5200
     19 N19       -12.9875   -0.4536   60.9030 N.am    1  ZINC001318556452   -0.5200
     20 C20       -13.5972   -0.1452   62.1988 C.3     1  ZINC001318556452    0.0600
     21 C21       -13.5123   -1.4707   60.1347 C.ar    1  ZINC001318556452    0.1800
     22 C22       -14.6105   -2.1994   60.5839 C.ar    1  ZINC001318556452   -0.1700
     23 C23       -15.1249   -3.2135   59.8059 C.ar    1  ZINC001318556452   -0.0600
     24 C24       -14.5588   -3.5175   58.5755 C.ar    1  ZINC001318556452   -0.1500
     25 C25       -13.4809   -2.8156   58.1151 C.ar    1  ZINC001318556452   -0.0600
     26 C26       -12.9458   -1.7790   58.8849 C.ar    1  ZINC001318556452   -0.1100
     27 H27        -8.4656    0.7776   55.8114 H       1  ZINC001318556452    0.0800
     28 H28        -8.8754    1.8995   54.4918 H       1  ZINC001318556452    0.0800
     29 H29       -10.0773    1.5307   55.7518 H       1  ZINC001318556452    0.0700
     30 H30        -8.3650    1.0499   51.6932 H       1  ZINC001318556452    0.1000
     31 H31        -7.7735    1.2568   53.3593 H       1  ZINC001318556452    0.1300
     32 H32        -5.1712    1.3677   52.4215 H       1  ZINC001318556452    0.1100
     33 H33        -4.4722    0.1054   51.3792 H       1  ZINC001318556452    0.1100
     34 H34        -5.7629    1.1609   50.7555 H       1  ZINC001318556452    0.0800
     35 H35        -9.2063   -1.5975   51.3971 H       1  ZINC001318556452    0.1200
     36 H36       -11.0673   -2.9800   52.2224 H       1  ZINC001318556452    0.1300
     37 H37       -12.1052   -2.4796   54.3972 H       1  ZINC001318556452    0.1500
     38 H38       -11.9898    0.2424   56.1295 H       1  ZINC001318556452    0.4100
     39 H39       -10.4415    0.5674   58.8779 H       1  ZINC001318556452    0.1600
     40 H40       -13.0596    0.6797   62.6663 H       1  ZINC001318556452    0.1000
     41 H41       -14.6396    0.1373   62.0519 H       1  ZINC001318556452    0.0800
     42 H42       -13.5461   -1.0234   62.8426 H       1  ZINC001318556452    0.0800
     43 H43       -15.0577   -1.9705   61.5400 H       1  ZINC001318556452    0.1400
     44 H44       -15.9766   -3.7775   60.1568 H       1  ZINC001318556452    0.1300
     45 H45       -14.9735   -4.3157   57.9776 H       1  ZINC001318556452    0.1300
     46 H46       -13.0461   -3.0583   57.1567 H       1  ZINC001318556452    0.1700
@<TRIPOS>BOND
     1     1     2    1
     2     1    27    1
     3     1    28    1
     4     1    29    1
     5     2    11   ar
     6     2     3   ar
     7     3     4    1
     8     3     8   ar
     9     4     5    1
    10     4    30    1
    11     4    31    1
    12     5     6    1
    13     5     7    2
    14     6    32    1
    15     6    33    1
    16     6    34    1
    17     8     9   ar
    18     8    35    1
    19     9    10   ar
    20     9    36    1
    21    10    11   ar
    22    10    37    1
    23    11    12    1
    24    12    13   am
    25    12    38    1
    26    13    14    2
    27    13    15    1
    28    15    26    1
    29    15    16    2
    30    16    17    1
    31    16    39    1
    32    17    18    2
    33    17    19   am
    34    19    20    1
    35    19    21    1
    36    20    40    1
    37    20    41    1
    38    20    42    1
    39    21    26   ar
    40    21    22   ar
    41    22    23   ar
    42    22    43    1
    43    23    24   ar
    44    23    44    1
    45    24    25   ar
    46    24    45    1
    47    25    26   ar
    48    25    46    1
@<TRIPOS>SUBSTRUCTURE
     1 ZINC001318556452        1 TEMP              0 ****  ****    0 ROOT


##########                                Name:    ZINC000626935317
##########                DOCK_Rotatable_Bonds:                   6
##########                         Heavy_Atoms:                  25
##########                    Molecular_Weight:             366.441
##########                DOCK_Rotatable_Bonds:                   6
##########                       Formal_Charge:          -0.0200006
##########                     HBond_Acceptors:                   9
##########                        HBond_Donors:                   2
##########                         Heavy_Atoms:                  25
##########                          Grid_Score:          -28.378920
##########                     Grid_vdw_energy:          -27.195536
##########                      Grid_es_energy:           -1.183384
##########           Internal_energy_repulsive:            9.820629

@<TRIPOS>MOLECULE
ZINC000626935317
 47 49 1 0 0
SMALL
USER_CHARGES


@<TRIPOS>ATOM
      1 C1         -6.8284    1.1226   51.5115 C.3     1  ZINC000626935317    0.0900
      2 N2         -7.9482    0.2637   51.9049 N.am    1  ZINC000626935317   -0.6200
      3 C3         -7.9310   -1.0791   51.8465 C.2     1  ZINC000626935317    0.5200
      4 O4         -6.9955   -1.7455   51.4572 O.2     1  ZINC000626935317   -0.5200
      5 C5         -9.2483   -1.6381   52.3373 C.3     1  ZINC000626935317   -0.1500
      6 C6         -9.9049   -0.4570   53.0888 C.3     1  ZINC000626935317   -0.1200
      7 H7         -9.6692   -0.4918   54.1524 H       1  ZINC000626935317    0.1200
      8 C8        -11.3959   -0.4405   52.8698 C.2     1  ZINC000626935317    0.5300
      9 O9        -11.8441   -0.2224   51.7642 O.2     1  ZINC000626935317   -0.5200
     10 N10       -12.2312   -0.6681   53.9028 N.am    1  ZINC000626935317   -0.7100
     11 C11       -13.6806   -0.6505   53.6903 C.3     1  ZINC000626935317    0.1200
     12 C12       -14.2285   -1.9473   53.0716 C.3     1  ZINC000626935317   -0.1600
     13 C13       -14.3917   -2.4711   54.5082 C.3     1  ZINC000626935317    0.1200
     14 N14       -13.2036   -3.1577   55.0211 N.am    1  ZINC000626935317   -1.1100
     15 S15       -13.3710   -4.4904   55.9898 S.o2    1  ZINC000626935317    2.6100
     16 C16       -14.3038   -3.8916   57.4258 C.3     1  ZINC000626935317   -0.6700
     17 O17       -14.1612   -5.3861   55.2201 O.2     1  ZINC000626935317   -0.9500
     18 O18       -12.0405   -4.8221   56.3624 O.2     1  ZINC000626935317   -0.9500
     19 C19       -14.4919   -1.0011   54.9488 C.3     1  ZINC000626935317   -0.1600
     20 C20        -9.2306    0.7587   52.4191 C.3     1  ZINC000626935317    0.2000
     21 H21        -9.8442    1.1245   51.5959 H       1  ZINC000626935317    0.1100
     22 C22        -9.0084    1.8541   53.4298 C.ar    1  ZINC000626935317   -0.1600
     23 C23        -8.0948    1.6853   54.4587 C.ar    1  ZINC000626935317   -0.0500
     24 C24        -7.9230    2.7204   55.3653 C.ar    1  ZINC000626935317   -0.1700
     25 C25        -8.6627    3.8776   55.2142 C.ar    1  ZINC000626935317    0.1000
     26 N26        -9.5234    4.0036   54.2228 N.ar    1  ZINC000626935317   -0.4800
     27 C27        -9.7088    3.0424   53.3394 C.ar    1  ZINC000626935317    0.1200
     28 H28        -6.1822    1.2942   52.3724 H       1  ZINC000626935317    0.0600
     29 H29        -6.2579    0.6362   50.7203 H       1  ZINC000626935317    0.0800
     30 H30        -7.2119    2.0764   51.1492 H       1  ZINC000626935317    0.0700
     31 H31        -9.8686   -1.9473   51.4962 H       1  ZINC000626935317    0.1100
     32 H32        -9.0788   -2.4745   53.0153 H       1  ZINC000626935317    0.1200
     33 H33       -11.8727   -0.8438   54.7869 H       1  ZINC000626935317    0.4000
     34 H34       -14.0237    0.2537   53.1875 H       1  ZINC000626935317    0.1100
     35 H35       -15.1736   -1.8146   52.5452 H       1  ZINC000626935317    0.1100
     36 H36       -13.4910   -2.4978   52.4873 H       1  ZINC000626935317    0.0800
     37 H37       -15.3091   -3.0386   54.6644 H       1  ZINC000626935317    0.1100
     38 H38       -12.3188   -2.8317   54.7933 H       1  ZINC000626935317    0.4100
     39 H39       -15.2679   -3.5039   57.0970 H       1  ZINC000626935317    0.1300
     40 H40       -14.4617   -4.7131   58.1247 H       1  ZINC000626935317    0.1300
     41 H41       -13.7421   -3.0982   57.9188 H       1  ZINC000626935317    0.1300
     42 H42       -13.9673   -0.7876   55.8801 H       1  ZINC000626935317    0.0900
     43 H43       -15.5091   -0.6097   54.9356 H       1  ZINC000626935317    0.1100
     44 H44        -7.5307    0.7691   54.5522 H       1  ZINC000626935317    0.1400
     45 H45        -7.2200    2.6232   56.1795 H       1  ZINC000626935317    0.1400
     46 H46        -8.5351    4.6883   55.9162 H       1  ZINC000626935317    0.1600
     47 H47       -10.4225    3.1817   52.5409 H       1  ZINC000626935317    0.1500
@<TRIPOS>BOND
     1     1     2    1
     2     1    28    1
     3     1    29    1
     4     1    30    1
     5     2    20    1
     6     2     3   am
     7     3     4    2
     8     3     5    1
     9     5     6    1
    10     5    31    1
    11     5    32    1
    12     6     7    1
    13     6     8    1
    14     6    20    1
    15     8     9    2
    16     8    10   am
    17    10    11    1
    18    10    33    1
    19    11    19    1
    20    11    12    1
    21    11    34    1
    22    12    13    1
    23    12    35    1
    24    12    36    1
    25    13    14    1
    26    13    19    1
    27    13    37    1
    28    14    15   am
    29    14    38    1
    30    15    16    1
    31    15    17    2
    32    15    18    2
    33    16    39    1
    34    16    40    1
    35    16    41    1
    36    19    42    1
    37    19    43    1
    38    20    21    1
    39    20    22    1
    40    22    27   ar
    41    22    23   ar
    42    23    24   ar
    43    23    44    1
    44    24    25   ar
    45    24    45    1
    46    25    26   ar
    47    25    46    1
    48    26    27   ar
    49    27    47    1
@<TRIPOS>SUBSTRUCTURE
     1 ZINC000626935317        1 TEMP              0 ****  ****    0 ROOT


##########                                Name:    ZINC000945148121
##########                DOCK_Rotatable_Bonds:                   6
##########                         Heavy_Atoms:                  24
##########                    Molecular_Weight:             332.446
##########                DOCK_Rotatable_Bonds:                   6
##########                       Formal_Charge:           0.0100009
##########                     HBond_Acceptors:                   6
##########                        HBond_Donors:                   2
##########                         Heavy_Atoms:                  24
##########                          Grid_Score:          -28.363657
##########                     Grid_vdw_energy:          -25.470762
##########                      Grid_es_energy:           -2.892894
##########           Internal_energy_repulsive:           17.845148

@<TRIPOS>MOLECULE
ZINC000945148121
 52 54 1 0 0
SMALL
USER_CHARGES


@<TRIPOS>ATOM
      1 O1         -4.4048    5.0624   53.4626 O.2     1  ZINC000945148121   -0.5100
      2 C2         -4.2608    3.9405   53.9003 C.2     1  ZINC000945148121    0.5200
      3 C3         -5.0216    3.5067   55.1267 C.3     1  ZINC000945148121   -0.0500
      4 C4         -6.3267    2.8776   54.7117 C.2     1  ZINC000945148121    0.0100
      5 C5         -7.0067    1.9396   55.3982 C.2     1  ZINC000945148121   -0.0500
      6 N6         -8.1289    1.6512   54.6695 N.pl3   1  ZINC000945148121   -0.5700
      7 C7         -8.0957    2.4237   53.5623 C.2     1  ZINC000945148121    0.1800
      8 N8         -7.0175    3.1582   53.5968 N.2     1  ZINC000945148121   -0.4700
      9 N9         -3.4246    3.0799   53.2866 N.am    1  ZINC000945148121   -0.7300
     10 C10        -2.6849    3.5016   52.0945 C.3     1  ZINC000945148121    0.1500
     11 C11        -1.2975    4.0003   52.5051 C.3     1  ZINC000945148121   -0.1400
     12 C12        -0.5399    4.4726   51.2602 C.3     1  ZINC000945148121    0.1100
     13 N13        -0.5221    3.3824   50.2755 N.am    1  ZINC000945148121   -0.6100
     14 C14         0.6411    2.9530   49.7472 C.2     1  ZINC000945148121    0.5200
     15 O15         1.6866    3.4664   50.0850 O.2     1  ZINC000945148121   -0.5400
     16 C16         0.6425    1.8348   48.7369 C.3     1  ZINC000945148121   -0.1000
     17 C17         0.0927    2.3350   47.4286 C.3     1  ZINC000945148121   -0.1200
     18 C18        -0.6982    1.2527   46.6692 C.3     1  ZINC000945148121   -0.1200
     19 C19        -0.0188   -0.1291   46.7187 C.3     1  ZINC000945148121   -0.1200
     20 C20         1.4721   -0.0446   46.5331 C.3     1  ZINC000945148121   -0.1200
     21 C21         2.1364    0.0137   47.9239 C.3     1  ZINC000945148121   -0.1200
     22 C22         2.0874    1.3466   48.5065 C.3     1  ZINC000945148121   -0.1000
     23 C23        -1.7966    2.7687   49.8778 C.3     1  ZINC000945148121    0.1100
     24 C24        -2.5400    2.3155   51.1383 C.3     1  ZINC000945148121   -0.1400
     25 H25        -4.4294    2.7807   55.6839 H       1  ZINC000945148121    0.1000
     26 H26        -5.2203    4.3737   55.7566 H       1  ZINC000945148121    0.1000
     27 H27        -6.7211    1.4992   56.3421 H       1  ZINC000945148121    0.1800
     28 H28        -8.8191    1.0115   54.9046 H       1  ZINC000945148121    0.4200
     29 H29        -8.8402    2.4348   52.7800 H       1  ZINC000945148121    0.2100
     30 H30        -3.3124    2.1813   53.6344 H       1  ZINC000945148121    0.4000
     31 H31        -3.2268    4.3056   51.5964 H       1  ZINC000945148121    0.0900
     32 H32        -1.4014    4.8300   53.2043 H       1  ZINC000945148121    0.0800
     33 H33        -0.7457    3.1898   52.9810 H       1  ZINC000945148121    0.0700
     34 H34        -1.0422    5.3413   50.8345 H       1  ZINC000945148121    0.0700
     35 H35         0.4822    4.7358   51.5324 H       1  ZINC000945148121    0.1000
     36 H36         0.0312    1.0099   49.1029 H       1  ZINC000945148121    0.1000
     37 H37        -0.5657    3.1816   47.6233 H       1  ZINC000945148121    0.0700
     38 H38         0.9202    2.6708   46.8036 H       1  ZINC000945148121    0.0700
     39 H39        -1.6928    1.1713   47.1079 H       1  ZINC000945148121    0.0600
     40 H40        -0.7998    1.5573   45.6276 H       1  ZINC000945148121    0.0700
     41 H41        -0.2284   -0.5908   47.6836 H       1  ZINC000945148121    0.0600
     42 H42        -0.4371   -0.7563   45.9316 H       1  ZINC000945148121    0.0600
     43 H43         1.8246   -0.9250   45.9956 H       1  ZINC000945148121    0.0600
     44 H44         1.7206    0.8552   45.9705 H       1  ZINC000945148121    0.0700
     45 H45         1.6242   -0.6813   48.5892 H       1  ZINC000945148121    0.0600
     46 H46         3.1782   -0.2926   47.8306 H       1  ZINC000945148121    0.0600
     47 H47         2.5929    2.0431   47.8376 H       1  ZINC000945148121    0.0700
     48 H48         2.6122    1.3337   49.4619 H       1  ZINC000945148121    0.0700
     49 H49        -2.4012    3.4984   49.3394 H       1  ZINC000945148121    0.0700
     50 H50        -1.6036    1.9076   49.2380 H       1  ZINC000945148121    0.1000
     51 H51        -1.9765    1.5208   51.6271 H       1  ZINC000945148121    0.0700
     52 H52        -3.5284    1.9460   50.8646 H       1  ZINC000945148121    0.0800
@<TRIPOS>BOND
     1     1     2    2
     2     2     3    1
     3     2     9   am
     4     3     4    1
     5     3    25    1
     6     3    26    1
     7     4     8    1
     8     4     5    2
     9     5     6    1
    10     5    27    1
    11     6     7    1
    12     6    28    1
    13     7     8    2
    14     7    29    1
    15     9    10    1
    16     9    30    1
    17    10    24    1
    18    10    11    1
    19    10    31    1
    20    11    12    1
    21    11    32    1
    22    11    33    1
    23    12    13    1
    24    12    34    1
    25    12    35    1
    26    13    14   am
    27    13    23    1
    28    14    15    2
    29    14    16    1
    30    16    22    1
    31    16    17    1
    32    16    36    1
    33    17    18    1
    34    17    37    1
    35    17    38    1
    36    18    19    1
    37    18    39    1
    38    18    40    1
    39    19    20    1
    40    19    41    1
    41    19    42    1
    42    20    21    1
    43    20    43    1
    44    20    44    1
    45    21    22    1
    46    21    45    1
    47    21    46    1
    48    22    47    1
    49    22    48    1
    50    23    24    1
    51    23    49    1
    52    23    50    1
    53    24    51    1
    54    24    52    1
@<TRIPOS>SUBSTRUCTURE
     1 ZINC000945148121        1 TEMP              0 ****  ****    0 ROOT


##########                                Name:    ZINC000422507946
##########                DOCK_Rotatable_Bonds:                   7
##########                         Heavy_Atoms:                  25
##########                    Molecular_Weight:             364.484
##########                DOCK_Rotatable_Bonds:                   7
##########                       Formal_Charge:          0.00999952
##########                     HBond_Acceptors:                   6
##########                        HBond_Donors:                   1
##########                         Heavy_Atoms:                  25
##########                          Grid_Score:          -28.354420
##########                     Grid_vdw_energy:          -27.858929
##########                      Grid_es_energy:           -0.495490
##########           Internal_energy_repulsive:           29.553946

@<TRIPOS>MOLECULE
ZINC000422507946
 50 52 1 0 0
SMALL
USER_CHARGES


@<TRIPOS>ATOM
      1 C1         -6.2917    2.5263   52.8356 C.3     1  ZINC000422507946   -0.1400
      2 C2         -7.4265    1.8070   52.1040 C.3     1  ZINC000422507946   -0.0400
      3 H3         -7.9750    2.5069   51.4735 H       1  ZINC000422507946    0.1100
      4 C4         -8.3781    1.1353   53.1157 C.3     1  ZINC000422507946   -0.1400
      5 C5         -8.9300   -0.1608   52.4971 C.3     1  ZINC000422507946    0.1400
      6 H6         -9.6468    0.0774   51.7113 H       1  ZINC000422507946    0.1100
      7 N7         -9.5738   -0.9745   53.5314 N.am    1  ZINC000422507946   -0.6900
      8 C8        -10.4357   -1.9499   53.1821 C.2     1  ZINC000422507946    0.5100
      9 O9        -10.6773   -2.1553   52.0108 O.2     1  ZINC000422507946   -0.5000
     10 C10       -11.0937   -2.7787   54.2374 C.2     1  ZINC000422507946    0.5100
     11 O11       -10.4298   -3.5309   54.9199 O.2     1  ZINC000422507946   -0.5200
     12 N12       -12.4247   -2.6907   54.4308 N.am    1  ZINC000422507946   -0.5700
     13 C13       -13.0698   -3.5032   55.4653 C.3     1  ZINC000422507946    0.1400
     14 C14       -12.3300   -3.3380   56.7678 C.ar    1  ZINC000422507946   -0.0800
     15 C15       -11.5690   -4.3784   57.2667 C.ar    1  ZINC000422507946   -0.1100
     16 C16       -10.8897   -4.2285   58.4616 C.ar    1  ZINC000422507946   -0.0900
     17 C17       -10.9709   -3.0380   59.1583 C.ar    1  ZINC000422507946   -0.1500
     18 C18       -11.7326   -1.9948   58.6592 C.ar    1  ZINC000422507946    0.1000
     19 F19       -11.8127   -0.8304   59.3396 F       1  ZINC000422507946   -0.1400
     20 C20       -12.4081   -2.1444   57.4601 C.ar    1  ZINC000422507946   -0.1500
     21 C21       -13.2262   -1.7826   53.6068 C.3     1  ZINC000422507946    0.1400
     22 C22       -14.0511   -2.5882   52.5819 C.3     1  ZINC000422507946   -0.1200
     23 C23       -15.4339   -2.7602   53.2582 C.3     1  ZINC000422507946   -0.1300
     24 C24       -15.6401   -1.3977   53.9656 C.3     1  ZINC000422507946   -0.1200
     25 C25       -14.2366   -1.0257   54.4865 C.3     1  ZINC000422507946   -0.1600
     26 C26        -7.7204   -0.9249   51.8971 C.3     1  ZINC000422507946   -0.0900
     27 S27        -6.7645    0.4268   51.0994 S.3     1  ZINC000422507946   -0.2700
     28 H28        -5.6136    2.9705   52.1069 H       1  ZINC000422507946    0.0700
     29 H29        -6.7070    3.3095   53.4698 H       1  ZINC000422507946    0.0700
     30 H30        -5.7457    1.8116   53.4514 H       1  ZINC000422507946    0.0700
     31 H31        -7.8333    0.9009   54.0303 H       1  ZINC000422507946    0.0900
     32 H32        -9.2021    1.8102   53.3467 H       1  ZINC000422507946    0.0900
     33 H33        -9.3797   -0.8110   54.4677 H       1  ZINC000422507946    0.4100
     34 H34       -14.1028   -3.1786   55.5905 H       1  ZINC000422507946    0.1100
     35 H35       -13.0518   -4.5516   55.1676 H       1  ZINC000422507946    0.1000
     36 H36       -11.5053   -5.3094   56.7230 H       1  ZINC000422507946    0.1400
     37 H37       -10.2957   -5.0422   58.8506 H       1  ZINC000422507946    0.1300
     38 H38       -10.4408   -2.9213   60.0920 H       1  ZINC000422507946    0.1400
     39 H39       -13.0022   -1.3313   57.0697 H       1  ZINC000422507946    0.1400
     40 H40       -12.5767   -1.0752   53.0912 H       1  ZINC000422507946    0.1100
     41 H41       -14.1489   -2.0323   51.6494 H       1  ZINC000422507946    0.0800
     42 H42       -13.5913   -3.5599   52.4014 H       1  ZINC000422507946    0.0600
     43 H43       -16.2103   -2.9295   52.5122 H       1  ZINC000422507946    0.0700
     44 H44       -15.4104   -3.5728   53.9842 H       1  ZINC000422507946    0.0600
     45 H45       -15.9946   -0.6496   53.2567 H       1  ZINC000422507946    0.0700
     46 H46       -16.3400   -1.5007   54.7949 H       1  ZINC000422507946    0.0700
     47 H47       -14.1305   -1.3340   55.5266 H       1  ZINC000422507946    0.0900
     48 H48       -14.0779    0.0489   54.3973 H       1  ZINC000422507946    0.0800
     49 H49        -7.1357   -1.4039   52.6824 H       1  ZINC000422507946    0.1000
     50 H50        -8.0504   -1.6545   51.1575 H       1  ZINC000422507946    0.1100
@<TRIPOS>BOND
     1     1     2    1
     2     1    28    1
     3     1    29    1
     4     1    30    1
     5     2     3    1
     6     2    27    1
     7     2     4    1
     8     4     5    1
     9     4    31    1
    10     4    32    1
    11     5     6    1
    12     5     7    1
    13     5    26    1
    14     7     8   am
    15     7    33    1
    16     8     9    2
    17     8    10    1
    18    10    11    2
    19    10    12   am
    20    12    13    1
    21    12    21    1
    22    13    14    1
    23    13    34    1
    24    13    35    1
    25    14    20   ar
    26    14    15   ar
    27    15    16   ar
    28    15    36    1
    29    16    17   ar
    30    16    37    1
    31    17    18   ar
    32    17    38    1
    33    18    19    1
    34    18    20   ar
    35    20    39    1
    36    21    25    1
    37    21    22    1
    38    21    40    1
    39    22    23    1
    40    22    41    1
    41    22    42    1
    42    23    24    1
    43    23    43    1
    44    23    44    1
    45    24    25    1
    46    24    45    1
    47    24    46    1
    48    25    47    1
    49    25    48    1
    50    26    27    1
    51    26    49    1
    52    26    50    1
@<TRIPOS>SUBSTRUCTURE
     1 ZINC000422507946        1 TEMP              0 ****  ****    0 ROOT


##########                                Name:    ZINC000530457945
##########                DOCK_Rotatable_Bonds:                   4
##########                         Heavy_Atoms:                  25
##########                    Molecular_Weight:             355.827
##########                DOCK_Rotatable_Bonds:                   4
##########                       Formal_Charge:           0.0199997
##########                     HBond_Acceptors:                   7
##########                        HBond_Donors:                   1
##########                         Heavy_Atoms:                  25
##########                          Grid_Score:          -28.349092
##########                     Grid_vdw_energy:          -30.320322
##########                      Grid_es_energy:            1.971230
##########           Internal_energy_repulsive:           32.645161

@<TRIPOS>MOLECULE
ZINC000530457945
 43 46 1 0 0
SMALL
USER_CHARGES


@<TRIPOS>ATOM
      1 C1         -1.2860    2.1138   49.9515 C.3     1  ZINC000530457945   -0.1700
      2 C2         -1.4341    2.1300   51.4742 C.3     1  ZINC000530457945    0.0900
      3 H3         -1.7803    1.1572   51.8233 H       1  ZINC000530457945    0.1100
      4 C4         -2.4373    3.2255   51.8925 C.3     1  ZINC000530457945   -0.1200
      5 H5         -2.5099    3.9953   51.1242 H       1  ZINC000530457945    0.1100
      6 C6         -3.7916    2.6279   52.1749 C.2     1  ZINC000530457945    0.5300
      7 O7         -4.4458    3.0257   53.1154 O.2     1  ZINC000530457945   -0.4700
      8 N8         -4.2757    1.6513   51.3821 N.am    1  ZINC000530457945   -0.6200
      9 C9         -5.5302    1.0963   51.6448 C.2     1  ZINC000530457945    0.4800
     10 N10        -5.8254   -0.1857   51.5709 N.2     1  ZINC000530457945   -0.3000
     11 N11        -7.1798   -0.3164   51.9096 N.pl3   1  ZINC000530457945   -0.2800
     12 C12        -8.0142   -1.3851   52.0023 C.2     1  ZINC000530457945    0.1400
     13 C13        -9.3087   -1.2186   52.3602 C.2     1  ZINC000530457945   -0.0800
     14 Cl14      -10.3596   -2.5956   52.4733 Cl      1  ZINC000530457945   -0.0200
     15 C15        -9.8034    0.0642   52.6406 C.2     1  ZINC000530457945   -0.0500
     16 C16        -8.9730    1.1402   52.5503 C.2     1  ZINC000530457945   -0.0900
     17 C17        -7.6316    0.9447   52.1763 C.2     1  ZINC000530457945    0.3000
     18 N18        -6.6095    1.7790   52.0134 N.2     1  ZINC000530457945   -0.5500
     19 C19        -1.8065    3.8010   53.1877 C.3     1  ZINC000530457945   -0.1200
     20 C20        -0.2941    3.7173   52.8632 C.3     1  ZINC000530457945    0.0400
     21 N21        -0.1398    2.4561   52.1006 N.3     1  ZINC000530457945   -0.4900
     22 C22         0.8664    2.5728   51.1387 C.ar    1  ZINC000530457945    0.1000
     23 C23         0.9520    3.7172   50.3562 C.ar    1  ZINC000530457945   -0.1600
     24 C24         1.9484    3.8295   49.4065 C.ar    1  ZINC000530457945   -0.1100
     25 C25         2.8599    2.8039   49.2339 C.ar    1  ZINC000530457945   -0.1300
     26 C26         2.7775    1.6633   50.0112 C.ar    1  ZINC000530457945   -0.1100
     27 C27         1.7872    1.5470   50.9667 C.ar    1  ZINC000530457945   -0.1000
     28 H28        -0.4876    1.4266   49.6714 H       1  ZINC000530457945    0.0700
     29 H29        -2.2222    1.7869   49.4988 H       1  ZINC000530457945    0.0600
     30 H30        -1.0428    3.1163   49.5994 H       1  ZINC000530457945    0.0600
     31 H31        -3.7530    1.3340   50.6292 H       1  ZINC000530457945    0.4300
     32 H32        -7.6412   -2.3757   51.7881 H       1  ZINC000530457945    0.1800
     33 H33       -10.8364    0.1976   52.9260 H       1  ZINC000530457945    0.1600
     34 H34        -9.3410    2.1330   52.7631 H       1  ZINC000530457945    0.1700
     35 H35        -2.1150    4.8342   53.3467 H       1  ZINC000530457945    0.0900
     36 H36        -2.0554    3.1836   54.0509 H       1  ZINC000530457945    0.0900
     37 H37         0.0114    4.5693   52.2558 H       1  ZINC000530457945    0.0700
     38 H38         0.2896    3.6768   53.7827 H       1  ZINC000530457945    0.0900
     39 H39         0.2400    4.5182   50.4900 H       1  ZINC000530457945    0.1200
     40 H40         2.0155    4.7190   48.7976 H       1  ZINC000530457945    0.1200
     41 H41         3.6377    2.8940   48.4899 H       1  ZINC000530457945    0.1200
     42 H42         3.4910    0.8642   49.8738 H       1  ZINC000530457945    0.1300
     43 H43         1.7235    0.6560   51.5737 H       1  ZINC000530457945    0.1300
@<TRIPOS>BOND
     1     1     2    1
     2     1    28    1
     3     1    29    1
     4     1    30    1
     5     2     3    1
     6     2    21    1
     7     2     4    1
     8     4     5    1
     9     4     6    1
    10     4    19    1
    11     6     7    2
    12     6     8   am
    13     8     9    1
    14     8    31    1
    15     9    18    1
    16     9    10    2
    17    10    11    1
    18    11    17    1
    19    11    12    1
    20    12    13    2
    21    12    32    1
    22    13    14    1
    23    13    15    1
    24    15    16    2
    25    15    33    1
    26    16    17    1
    27    16    34    1
    28    17    18    2
    29    19    20    1
    30    19    35    1
    31    19    36    1
    32    20    21    1
    33    20    37    1
    34    20    38    1
    35    21    22    1
    36    22    27   ar
    37    22    23   ar
    38    23    24   ar
    39    23    39    1
    40    24    25   ar
    41    24    40    1
    42    25    26   ar
    43    25    41    1
    44    26    27   ar
    45    26    42    1
    46    27    43    1
@<TRIPOS>SUBSTRUCTURE
     1 ZINC000530457945        1 TEMP              0 ****  ****    0 ROOT


##########                                Name:    ZINC000516003207
##########                DOCK_Rotatable_Bonds:                   5
##########                         Heavy_Atoms:                  24
##########                    Molecular_Weight:             342.462
##########                DOCK_Rotatable_Bonds:                   5
##########                       Formal_Charge:          -0.0200001
##########                     HBond_Acceptors:                   5
##########                        HBond_Donors:                   1
##########                         Heavy_Atoms:                  24
##########                          Grid_Score:          -28.306999
##########                     Grid_vdw_energy:          -28.372948
##########                      Grid_es_energy:            0.065948
##########           Internal_energy_repulsive:           10.071551

@<TRIPOS>MOLECULE
ZINC000516003207
 46 49 1 0 0
SMALL
USER_CHARGES


@<TRIPOS>ATOM
      1 C1         -8.3336   -0.1035   62.9609 C.3     1  ZINC000516003207    0.0300
      2 O2         -8.3860   -0.8040   61.7164 O.3     1  ZINC000516003207   -0.3600
      3 C3         -9.2288   -0.1904   60.7391 C.3     1  ZINC000516003207    0.0900
      4 H4         -9.4868    0.8390   60.9881 H       1  ZINC000516003207    0.0800
      5 C5         -8.7310   -0.3702   59.2934 C.3     1  ZINC000516003207   -0.1700
      6 C6         -9.5602   -1.6666   59.2466 C.3     1  ZINC000516003207    0.1500
      7 H7         -9.0105   -2.5495   59.5725 H       1  ZINC000516003207    0.1200
      8 N8        -10.2631   -1.8694   57.9773 N.am    1  ZINC000516003207   -0.7200
      9 C9        -10.8010   -3.0713   57.6896 C.2     1  ZINC000516003207    0.5600
     10 O10       -10.7043   -3.9863   58.4838 O.2     1  ZINC000516003207   -0.5300
     11 C11       -11.5090   -3.2766   56.4077 C.ar    1  ZINC000516003207   -0.1400
     12 C12       -12.1909   -4.4712   56.1684 C.ar    1  ZINC000516003207   -0.0800
     13 C13       -12.8516   -4.6635   54.9714 C.ar    1  ZINC000516003207   -0.1200
     14 C14       -12.8429   -3.6771   54.0049 C.ar    1  ZINC000516003207   -0.0800
     15 C15       -12.1656   -2.4791   54.2320 C.ar    1  ZINC000516003207   -0.0300
     16 C16       -12.1579   -1.4212   53.1919 C.2     1  ZINC000516003207    0.1100
     17 C17       -11.5180   -0.2447   53.3468 C.2     1  ZINC000516003207   -0.2600
     18 S18       -11.7663    0.7030   51.8827 S.3     1  ZINC000516003207    0.1400
     19 C19       -12.6982   -0.5606   51.2073 C.2     1  ZINC000516003207    0.0600
     20 C20       -13.3362   -0.5227   49.8424 C.3     1  ZINC000516003207   -0.0800
     21 N21       -12.7746   -1.5518   52.0263 N.2     1  ZINC000516003207   -0.4700
     22 C22       -11.5021   -2.2757   55.4375 C.ar    1  ZINC000516003207   -0.0300
     23 C23       -10.4325   -1.0459   60.3426 C.3     1  ZINC000516003207   -0.1100
     24 C24       -11.1549   -1.9204   61.3681 C.3     1  ZINC000516003207   -0.1200
     25 C25       -12.2225   -0.8130   61.4314 C.3     1  ZINC000516003207   -0.1400
     26 C26       -11.7828   -0.4089   60.0125 C.3     1  ZINC000516003207   -0.1200
     27 H27        -9.3346   -0.0479   63.3889 H       1  ZINC000516003207    0.0400
     28 H28        -7.6736   -0.6328   63.6482 H       1  ZINC000516003207    0.0900
     29 H29        -7.9528    0.9042   62.7949 H       1  ZINC000516003207    0.0400
     30 H30        -9.0879    0.4005   58.6103 H       1  ZINC000516003207    0.0900
     31 H31        -7.6564   -0.5371   59.2198 H       1  ZINC000516003207    0.0800
     32 H32       -10.3414   -1.1388   57.3441 H       1  ZINC000516003207    0.4000
     33 H33       -12.2013   -5.2461   56.9206 H       1  ZINC000516003207    0.1300
     34 H34       -13.3773   -5.5894   54.7902 H       1  ZINC000516003207    0.1400
     35 H35       -13.3613   -3.8339   53.0705 H       1  ZINC000516003207    0.1300
     36 H36       -10.9535    0.0623   54.2149 H       1  ZINC000516003207    0.1800
     37 H37       -13.1101    0.4293   49.3621 H       1  ZINC000516003207    0.0800
     38 H38       -12.9437   -1.3384   49.2352 H       1  ZINC000516003207    0.0900
     39 H39       -14.4161   -0.6316   49.9430 H       1  ZINC000516003207    0.0900
     40 H40       -10.9764   -1.3497   55.6177 H       1  ZINC000516003207    0.1500
     41 H41       -11.5238   -2.8608   60.9586 H       1  ZINC000516003207    0.0800
     42 H42       -10.6029   -2.0497   62.2990 H       1  ZINC000516003207    0.0800
     43 H43       -13.2428   -1.1933   61.4800 H       1  ZINC000516003207    0.0700
     44 H44       -12.0175   -0.0523   62.1847 H       1  ZINC000516003207    0.0800
     45 H45       -11.7323    0.6693   59.8605 H       1  ZINC000516003207    0.0700
     46 H46       -12.3281   -0.9245   59.2220 H       1  ZINC000516003207    0.0900
@<TRIPOS>BOND
     1     1     2    1
     2     1    27    1
     3     1    28    1
     4     1    29    1
     5     2     3    1
     6     3     4    1
     7     3    23    1
     8     3     5    1
     9     5     6    1
    10     5    30    1
    11     5    31    1
    12     6     7    1
    13     6     8    1
    14     6    23    1
    15     8     9   am
    16     8    32    1
    17     9    10    2
    18     9    11    1
    19    11    22   ar
    20    11    12   ar
    21    12    13   ar
    22    12    33    1
    23    13    14   ar
    24    13    34    1
    25    14    15   ar
    26    14    35    1
    27    15    16    1
    28    15    22   ar
    29    16    21    1
    30    16    17    2
    31    17    18    1
    32    17    36    1
    33    18    19    1
    34    19    20    1
    35    19    21    2
    36    20    37    1
    37    20    38    1
    38    20    39    1
    39    22    40    1
    40    23    26    1
    41    23    24    1
    42    24    25    1
    43    24    41    1
    44    24    42    1
    45    25    26    1
    46    25    43    1
    47    25    44    1
    48    26    45    1
    49    26    46    1
@<TRIPOS>SUBSTRUCTURE
     1 ZINC000516003207        1 TEMP              0 ****  ****    0 ROOT


##########                                Name:    ZINC000451500596
##########                DOCK_Rotatable_Bonds:                   7
##########                         Heavy_Atoms:                  25
##########                    Molecular_Weight:             365.497
##########                DOCK_Rotatable_Bonds:                   7
##########                       Formal_Charge:           0.0400004
##########                     HBond_Acceptors:                   7
##########                        HBond_Donors:                   2
##########                         Heavy_Atoms:                  25
##########                          Grid_Score:          -28.290537
##########                     Grid_vdw_energy:          -28.490841
##########                      Grid_es_energy:            0.200304
##########           Internal_energy_repulsive:           10.154021

@<TRIPOS>MOLECULE
ZINC000451500596
 52 54 1 0 0
SMALL
USER_CHARGES


@<TRIPOS>ATOM
      1 C1        -14.2144   -3.8532   55.3101 C.3     1  ZINC000451500596   -0.6700
      2 S2        -14.1306   -4.5366   56.9883 S.o2    1  ZINC000451500596    2.6100
      3 O3        -15.1622   -3.9926   57.8002 O.2     1  ZINC000451500596   -0.9500
      4 O4        -13.8938   -5.9371   56.9452 O.2     1  ZINC000451500596   -0.9600
      5 N5        -12.7367   -3.9060   57.6221 N.am    1  ZINC000451500596   -1.1200
      6 C6        -12.5762   -2.4546   57.7387 C.3     1  ZINC000451500596    0.1200
      7 C7        -11.0875   -2.1022   57.7098 C.3     1  ZINC000451500596   -0.1000
      8 H8        -10.5981   -2.6174   56.8833 H       1  ZINC000451500596    0.0900
      9 C9        -10.4248   -2.4978   59.0455 C.3     1  ZINC000451500596   -0.1200
     10 C10        -9.3966   -1.3695   59.3082 C.3     1  ZINC000451500596   -0.1300
     11 C11       -10.1436   -0.1049   58.8161 C.3     1  ZINC000451500596   -0.1300
     12 C12       -10.9087   -0.5810   57.5626 C.3     1  ZINC000451500596    0.1400
     13 H13       -11.8824   -0.0938   57.5122 H       1  ZINC000451500596    0.1000
     14 N14       -10.1335   -0.2788   56.3567 N.am    1  ZINC000451500596   -0.7200
     15 C15       -10.3083    0.8963   55.7203 C.2     1  ZINC000451500596    0.5300
     16 O16       -11.1084    1.7029   56.1449 O.2     1  ZINC000451500596   -0.5300
     17 C17        -9.5098    1.2080   54.4809 C.3     1  ZINC000451500596   -0.1300
     18 H18        -9.3976    0.3176   53.8622 H       1  ZINC000451500596    0.1000
     19 C19       -10.1734    2.3557   53.6750 C.3     1  ZINC000451500596   -0.1200
     20 C20        -8.9584    2.9527   52.9221 C.3     1  ZINC000451500596    0.0500
     21 N21        -7.8394    2.8687   53.8846 N.3     1  ZINC000451500596   -0.4900
     22 C22        -6.6299    2.6329   53.2270 C.ar    1  ZINC000451500596    0.0800
     23 C23        -6.4928    1.5277   52.3968 C.ar    1  ZINC000451500596   -0.0900
     24 C24        -5.2957    1.2978   51.7477 C.ar    1  ZINC000451500596   -0.1100
     25 C25        -4.2340    2.1661   51.9238 C.ar    1  ZINC000451500596   -0.1200
     26 C26        -4.3670    3.2674   52.7496 C.ar    1  ZINC000451500596   -0.1100
     27 C27        -5.5631    3.5064   53.3972 C.ar    1  ZINC000451500596   -0.1500
     28 C28        -8.1304    1.7914   54.8528 C.3     1  ZINC000451500596    0.0600
     29 H29       -14.2470   -2.7650   55.3621 H       1  ZINC000451500596    0.1300
     30 H30       -13.3344   -4.1639   54.7469 H       1  ZINC000451500596    0.1300
     31 H31       -15.1123   -4.2202   54.8127 H       1  ZINC000451500596    0.1300
     32 H32       -12.0265   -4.4977   57.9161 H       1  ZINC000451500596    0.4200
     33 H33       -13.0815   -1.9650   56.9062 H       1  ZINC000451500596    0.0700
     34 H34       -13.0117   -2.1151   58.6784 H       1  ZINC000451500596    0.0900
     35 H35       -11.1662   -2.5317   59.8439 H       1  ZINC000451500596    0.0800
     36 H36        -9.9203   -3.4592   58.9511 H       1  ZINC000451500596    0.0700
     37 H37        -9.1689   -1.2943   60.3715 H       1  ZINC000451500596    0.0700
     38 H38        -8.4883   -1.5320   58.7280 H       1  ZINC000451500596    0.0700
     39 H39       -10.8395    0.2475   59.5773 H       1  ZINC000451500596    0.0800
     40 H40        -9.4337    0.6796   58.5542 H       1  ZINC000451500596    0.0700
     41 H41        -9.4946   -0.9243   56.0164 H       1  ZINC000451500596    0.4000
     42 H42       -10.9126    1.9650   52.9756 H       1  ZINC000451500596    0.0800
     43 H43       -10.6204    3.0931   54.3417 H       1  ZINC000451500596    0.0800
     44 H44        -8.7376    2.3646   52.0313 H       1  ZINC000451500596    0.0600
     45 H45        -9.1512    3.9914   52.6539 H       1  ZINC000451500596    0.0900
     46 H46        -7.3215    0.8487   52.2592 H       1  ZINC000451500596    0.1300
     47 H47        -5.1885    0.4387   51.1020 H       1  ZINC000451500596    0.1300
     48 H48        -3.2987    1.9836   51.4157 H       1  ZINC000451500596    0.1200
     49 H49        -3.5358    3.9435   52.8850 H       1  ZINC000451500596    0.1200
     50 H50        -5.6665    4.3667   54.0418 H       1  ZINC000451500596    0.1200
     51 H51        -8.1631    2.1995   55.8629 H       1  ZINC000451500596    0.1000
     52 H52        -7.3653    1.0177   54.7876 H       1  ZINC000451500596    0.0700
@<TRIPOS>BOND
     1     1     2    1
     2     1    29    1
     3     1    30    1
     4     1    31    1
     5     2     3    2
     6     2     4    2
     7     2     5   am
     8     5     6    1
     9     5    32    1
    10     6     7    1
    11     6    33    1
    12     6    34    1
    13     7     8    1
    14     7    12    1
    15     7     9    1
    16     9    10    1
    17     9    35    1
    18     9    36    1
    19    10    11    1
    20    10    37    1
    21    10    38    1
    22    11    12    1
    23    11    39    1
    24    11    40    1
    25    12    13    1
    26    12    14    1
    27    14    15   am
    28    14    41    1
    29    15    16    2
    30    15    17    1
    31    17    18    1
    32    17    28    1
    33    17    19    1
    34    19    20    1
    35    19    42    1
    36    19    43    1
    37    20    21    1
    38    20    44    1
    39    20    45    1
    40    21    22    1
    41    21    28    1
    42    22    27   ar
    43    22    23   ar
    44    23    24   ar
    45    23    46    1
    46    24    25   ar
    47    24    47    1
    48    25    26   ar
    49    25    48    1
    50    26    27   ar
    51    26    49    1
    52    27    50    1
    53    28    51    1
    54    28    52    1
@<TRIPOS>SUBSTRUCTURE
     1 ZINC000451500596        1 TEMP              0 ****  ****    0 ROOT


##########                                Name:    ZINC000057429281
##########                DOCK_Rotatable_Bonds:                  10
##########                         Heavy_Atoms:                  23
##########                    Molecular_Weight:             331.295
##########                DOCK_Rotatable_Bonds:                  10
##########                       Formal_Charge:          -0.0100002
##########                     HBond_Acceptors:                   9
##########                        HBond_Donors:                   5
##########                         Heavy_Atoms:                  23
##########                          Grid_Score:          -28.287910
##########                     Grid_vdw_energy:          -28.892246
##########                      Grid_es_energy:            0.604337
##########           Internal_energy_repulsive:            9.869942

@<TRIPOS>MOLECULE
ZINC000057429281
 39 39 1 0 0
SMALL
USER_CHARGES


@<TRIPOS>ATOM
      1 C1        -12.9854   -1.5944   51.3282 C.3     1  ZINC000057429281   -0.1500
      2 C2        -12.1056   -2.0604   52.4899 C.3     1  ZINC000057429281   -0.0400
      3 H3        -11.9214   -3.1309   52.3995 H       1  ZINC000057429281    0.0900
      4 C4        -12.8165   -1.7753   53.8143 C.3     1  ZINC000057429281   -0.1300
      5 C5        -12.9176   -3.0484   54.6144 C.2     1  ZINC000057429281    0.5200
      6 O6        -13.6502   -3.9409   54.2437 O.2     1  ZINC000057429281   -0.5300
      7 N7        -12.1938   -3.1951   55.7418 N.am    1  ZINC000057429281   -0.7000
      8 C8        -12.2933   -4.4320   56.5205 C.3     1  ZINC000057429281    0.1100
      9 C9        -11.1851   -4.4737   57.5410 C.2     1  ZINC000057429281    0.5200
     10 N10       -10.4438   -5.5898   57.6853 N.am    1  ZINC000057429281   -0.8500
     11 O11       -10.9606   -3.5029   58.2323 O.2     1  ZINC000057429281   -0.5100
     12 C12       -13.6256   -4.4771   57.2236 C.2     1  ZINC000057429281    0.5300
     13 N13       -13.9417   -3.5309   58.1298 N.am    1  ZINC000057429281   -0.8400
     14 O14       -14.4132   -5.3649   56.9739 O.2     1  ZINC000057429281   -0.5100
     15 C15       -10.7935   -1.3201   52.4545 C.ar    1  ZINC000057429281   -0.0500
     16 C16        -9.6157   -2.0111   52.2394 C.ar    1  ZINC000057429281   -0.1200
     17 C17        -8.4120   -1.3321   52.2068 C.ar    1  ZINC000057429281   -0.0700
     18 C18        -8.3862    0.0379   52.3890 C.ar    1  ZINC000057429281   -0.1900
     19 C19        -7.0739    0.7781   52.3539 C.3     1  ZINC000057429281    0.5100
     20 F20        -6.0203   -0.1416   52.3203 F       1  ZINC000057429281   -0.1800
     21 F21        -7.0245    1.5858   51.2126 F       1  ZINC000057429281   -0.1800
     22 F22        -6.9589    1.5776   53.4962 F       1  ZINC000057429281   -0.1800
     23 C23        -9.5640    0.7291   52.6027 C.ar    1  ZINC000057429281   -0.0700
     24 C24       -10.7681    0.0506   52.6314 C.ar    1  ZINC000057429281   -0.1100
     25 H25       -12.4791   -1.7976   50.3846 H       1  ZINC000057429281    0.0600
     26 H26       -13.9346   -2.1299   51.3537 H       1  ZINC000057429281    0.0800
     27 H27       -13.1697   -0.5239   51.4185 H       1  ZINC000057429281    0.0500
     28 H28       -12.2495   -1.0353   54.3791 H       1  ZINC000057429281    0.1000
     29 H29       -13.8168   -1.3914   53.6145 H       1  ZINC000057429281    0.1000
     30 H30       -11.6069   -2.4816   56.0377 H       1  ZINC000057429281    0.4200
     31 H31       -12.2053   -5.2893   55.8533 H       1  ZINC000057429281    0.1300
     32 H32        -9.7304   -5.6168   58.3420 H       1  ZINC000057429281    0.4000
     33 H33       -10.6236   -6.3663   57.1324 H       1  ZINC000057429281    0.4100
     34 H34       -14.7992   -3.5600   58.5823 H       1  ZINC000057429281    0.4000
     35 H35       -13.3117   -2.8209   58.3294 H       1  ZINC000057429281    0.4100
     36 H36        -9.6358   -3.0815   52.0970 H       1  ZINC000057429281    0.1400
     37 H37        -7.4918   -1.8720   52.0394 H       1  ZINC000057429281    0.1400
     38 H38        -9.5439    1.7996   52.7446 H       1  ZINC000057429281    0.1400
     39 H39       -11.6884    0.5906   52.7983 H       1  ZINC000057429281    0.1400
@<TRIPOS>BOND
     1     1     2    1
     2     1    25    1
     3     1    26    1
     4     1    27    1
     5     2     3    1
     6     2     4    1
     7     2    15    1
     8     4     5    1
     9     4    28    1
    10     4    29    1
    11     5     6    2
    12     5     7   am
    13     7     8    1
    14     7    30    1
    15     8     9    1
    16     8    12    1
    17     8    31    1
    18     9    10   am
    19     9    11    2
    20    10    32    1
    21    10    33    1
    22    12    13   am
    23    12    14    2
    24    13    34    1
    25    13    35    1
    26    15    24   ar
    27    15    16   ar
    28    16    17   ar
    29    16    36    1
    30    17    18   ar
    31    17    37    1
    32    18    19    1
    33    18    23   ar
    34    19    20    1
    35    19    21    1
    36    19    22    1
    37    23    24   ar
    38    23    38    1
    39    24    39    1
@<TRIPOS>SUBSTRUCTURE
     1 ZINC000057429281        1 TEMP              0 ****  ****    0 ROOT


##########                                Name:    ZINC000564088286
##########                DOCK_Rotatable_Bonds:                   6
##########                         Heavy_Atoms:                  25
##########                    Molecular_Weight:             398.934
##########                DOCK_Rotatable_Bonds:                   6
##########                       Formal_Charge:               -0.05
##########                     HBond_Acceptors:                   8
##########                        HBond_Donors:                   1
##########                         Heavy_Atoms:                  25
##########                          Grid_Score:          -28.278162
##########                     Grid_vdw_energy:          -27.115250
##########                      Grid_es_energy:           -1.162913
##########           Internal_energy_repulsive:           13.438536

@<TRIPOS>MOLECULE
ZINC000564088286
 44 46 1 0 0
SMALL
USER_CHARGES


@<TRIPOS>ATOM
      1 C1         -9.2939    1.2772   55.4013 C.3     1  ZINC000564088286   -0.1600
      2 C2         -7.7901    1.4091   55.6508 C.3     1  ZINC000564088286    0.1100
      3 N3         -7.4808    2.7830   56.0545 N.am    1  ZINC000564088286   -1.1200
      4 S4         -7.2043    3.9416   54.9040 S.o2    1  ZINC000564088286    2.7000
      5 O5         -8.3255    3.9161   54.0314 O.2     1  ZINC000564088286   -0.9600
      6 O6         -6.7881    5.1079   55.6009 O.2     1  ZINC000564088286   -0.9600
      7 C7         -5.8203    3.4108   53.9514 C.ar    1  ZINC000564088286   -0.6800
      8 C8         -6.0184    2.7304   52.7644 C.ar    1  ZINC000564088286   -0.0200
      9 C9         -4.9326    2.3139   52.0170 C.ar    1  ZINC000564088286   -0.1300
     10 C10        -3.6488    2.5783   52.4563 C.ar    1  ZINC000564088286   -0.0100
     11 C11        -2.4652    2.1238   51.6418 C.3     1  ZINC000564088286   -0.1100
     12 C12        -1.8630    3.3063   50.9276 C.2     1  ZINC000564088286    0.5200
     13 O13        -2.2613    4.4266   51.1672 O.2     1  ZINC000564088286   -0.5200
     14 N14        -0.8819    3.1191   50.0228 N.am    1  ZINC000564088286   -0.6200
     15 C15        -0.3843    1.7693   49.7174 C.3     1  ZINC000564088286    0.1200
     16 C16        -0.7217    1.4431   48.2593 C.3     1  ZINC000564088286   -0.0700
     17 C17        -0.3694    2.6328   47.3916 C.2     1  ZINC000564088286   -0.1600
     18 C18        -0.1780    3.8876   47.8397 C.2     1  ZINC000564088286   -0.1200
     19 C19         0.1271    4.8023   46.8361 C.2     1  ZINC000564088286   -0.1100
     20 C20         0.1900    4.3045   45.6039 C.2     1  ZINC000564088286   -0.1500
     21 Cl21        0.5528    5.2176   44.1728 Cl      1  ZINC000564088286   -0.0100
     22 S22        -0.1497    2.5811   45.6471 S.3     1  ZINC000564088286    0.1600
     23 C23        -0.2854    4.2580   49.3106 C.3     1  ZINC000564088286    0.1700
     24 C24        -3.4509    3.2598   53.6426 C.ar    1  ZINC000564088286   -0.1300
     25 C25        -4.5366    3.6797   54.3880 C.ar    1  ZINC000564088286   -0.0200
     26 H26        -9.8364    1.5182   56.3155 H       1  ZINC000564088286    0.0600
     27 H27        -9.5925    1.9644   54.6097 H       1  ZINC000564088286    0.0600
     28 H28        -9.5241    0.2550   55.1009 H       1  ZINC000564088286    0.0700
     29 H29        -7.4916    0.7218   56.4424 H       1  ZINC000564088286    0.0800
     30 H30        -7.2476    1.1681   54.7366 H       1  ZINC000564088286    0.0700
     31 H31        -7.4380    3.0141   56.9956 H       1  ZINC000564088286    0.4200
     32 H32        -7.0213    2.5240   52.4212 H       1  ZINC000564088286    0.1400
     33 H33        -5.0874    1.7818   51.0900 H       1  ZINC000564088286    0.1300
     34 H34        -1.7196    1.6793   52.3010 H       1  ZINC000564088286    0.1100
     35 H35        -2.7902    1.3843   50.9099 H       1  ZINC000564088286    0.1100
     36 H36         0.6960    1.7367   49.8593 H       1  ZINC000564088286    0.0800
     37 H37        -0.8644    1.0447   50.3752 H       1  ZINC000564088286    0.1100
     38 H38        -0.1469    0.5745   47.9377 H       1  ZINC000564088286    0.0900
     39 H39        -1.7869    1.2299   48.1705 H       1  ZINC000564088286    0.0900
     40 H40         0.3011    5.8478   47.0438 H       1  ZINC000564088286    0.1500
     41 H41        -0.9168    5.1392   49.4243 H       1  ZINC000564088286    0.1000
     42 H42         0.7070    4.4595   49.7140 H       1  ZINC000564088286    0.0900
     43 H43        -2.4479    3.4666   53.9855 H       1  ZINC000564088286    0.1300
     44 H44        -4.3820    4.2121   55.3148 H       1  ZINC000564088286    0.1400
@<TRIPOS>BOND
     1     1     2    1
     2     1    26    1
     3     1    27    1
     4     1    28    1
     5     2     3    1
     6     2    29    1
     7     2    30    1
     8     3     4   am
     9     3    31    1
    10     4     5    2
    11     4     6    2
    12     4     7    1
    13     7    25   ar
    14     7     8   ar
    15     8     9   ar
    16     8    32    1
    17     9    10   ar
    18     9    33    1
    19    10    11    1
    20    10    24   ar
    21    11    12    1
    22    11    34    1
    23    11    35    1
    24    12    13    2
    25    12    14   am
    26    14    23    1
    27    14    15    1
    28    15    16    1
    29    15    36    1
    30    15    37    1
    31    16    17    1
    32    16    38    1
    33    16    39    1
    34    17    22    1
    35    17    18    2
    36    18    19    1
    37    18    23    1
    38    19    20    2
    39    19    40    1
    40    20    21    1
    41    20    22    1
    42    23    41    1
    43    23    42    1
    44    24    25   ar
    45    24    43    1
    46    25    44    1
@<TRIPOS>SUBSTRUCTURE
     1 ZINC000564088286        1 TEMP              0 ****  ****    0 ROOT


##########                                Name:    ZINC001039666729
##########                DOCK_Rotatable_Bonds:                   3
##########                         Heavy_Atoms:                  25
##########                    Molecular_Weight:             344.376
##########                DOCK_Rotatable_Bonds:                   3
##########                       Formal_Charge:          -0.0199998
##########                     HBond_Acceptors:                  10
##########                        HBond_Donors:                   2
##########                         Heavy_Atoms:                  25
##########                          Grid_Score:          -28.252701
##########                     Grid_vdw_energy:          -27.425083
##########                      Grid_es_energy:           -0.827619
##########           Internal_energy_repulsive:           41.668705

@<TRIPOS>MOLECULE
ZINC001039666729
 45 47 1 0 0
SMALL
USER_CHARGES


@<TRIPOS>ATOM
      1 C1        -13.6871   -4.7261   55.1263 C.3     1  ZINC001039666729   -0.1100
      2 C2        -14.0158   -3.4967   54.3190 C.ar    1  ZINC001039666729    0.2200
      3 C3        -15.1724   -2.7778   54.5757 C.ar    1  ZINC001039666729   -0.3000
      4 C4        -15.4373   -1.6531   53.8099 C.ar    1  ZINC001039666729    0.1900
      5 N5        -14.5836   -1.3017   52.8626 N.ar    1  ZINC001039666729   -0.5800
      6 C6        -13.4863   -2.0113   52.6427 C.ar    1  ZINC001039666729    0.6000
      7 N7        -12.6144   -1.6149   51.6436 N.pl3   1  ZINC001039666729   -0.5900
      8 C8        -13.0401   -0.8807   50.4130 C.3     1  ZINC001039666729    0.1200
      9 C9        -13.1967    0.5969   50.7791 C.3     1  ZINC001039666729    0.0900
     10 N10       -11.8732    1.1168   51.2044 N.am    1  ZINC001039666729   -0.7400
     11 C11       -11.6888    1.1558   52.5614 C.2     1  ZINC001039666729    0.5200
     12 O12       -12.5621    0.7853   53.3169 O.2     1  ZINC001039666729   -0.5200
     13 C13       -10.3758    1.6690   53.0942 C.3     1  ZINC001039666729   -0.1500
     14 C14        -9.6861    0.5662   53.8999 C.3     1  ZINC001039666729    0.1100
     15 N15        -9.5289   -0.6244   53.0250 N.am    1  ZINC001039666729   -0.6100
     16 C16        -8.4565   -0.8063   52.2293 C.2     1  ZINC001039666729    0.6100
     17 O17        -8.3785   -1.7986   51.5316 O.2     1  ZINC001039666729   -0.5200
     18 C18        -7.3751    0.2010   52.2049 C.2     1  ZINC001039666729   -0.0400
     19 N19        -7.3361    1.3510   52.8606 N.2     1  ZINC001039666729   -0.2500
     20 N20        -6.2309    1.9447   52.5788 N.pl3   1  ZINC001039666729   -0.2300
     21 N21        -5.5250    1.2461   51.7632 N.2     1  ZINC001039666729   -0.2800
     22 C22        -6.1660    0.1368   51.4838 C.2     1  ZINC001039666729    0.0400
     23 C23       -10.6484   -1.5989   53.0980 C.3     1  ZINC001039666729    0.1100
     24 C24       -11.1415   -1.8679   51.6786 C.3     1  ZINC001039666729    0.1300
     25 N25       -13.2012   -3.0878   53.3602 N.ar    1  ZINC001039666729   -0.5700
     26 H26       -13.1007   -4.4410   55.9998 H       1  ZINC001039666729    0.0800
     27 H27       -14.6107   -5.2062   55.4497 H       1  ZINC001039666729    0.0800
     28 H28       -13.1120   -5.4202   54.5134 H       1  ZINC001039666729    0.0800
     29 H29       -15.8528   -3.0872   55.3553 H       1  ZINC001039666729    0.1400
     30 H30       -16.3301   -1.0710   53.9842 H       1  ZINC001039666729    0.1600
     31 H31       -12.2823   -0.9903   49.6372 H       1  ZINC001039666729    0.0800
     32 H32       -13.9921   -1.2759   50.0583 H       1  ZINC001039666729    0.0900
     33 H33       -13.5487    1.1547   49.9114 H       1  ZINC001039666729    0.0800
     34 H34       -13.9110    0.6989   51.5961 H       1  ZINC001039666729    0.1000
     35 H35       -11.1950    1.4053   50.5737 H       1  ZINC001039666729    0.4100
     36 H36        -9.7368    1.9647   52.2620 H       1  ZINC001039666729    0.0800
     37 H37       -10.5564    2.5303   53.7374 H       1  ZINC001039666729    0.1100
     38 H38        -8.7063    0.9110   54.2304 H       1  ZINC001039666729    0.1100
     39 H39       -10.2960    0.3079   54.7656 H       1  ZINC001039666729    0.0900
     40 H40        -5.9650    2.8070   52.9348 H       1  ZINC001039666729    0.4700
     41 H41        -5.8386   -0.6583   50.8302 H       1  ZINC001039666729    0.2100
     42 H42       -10.2985   -2.5269   53.5502 H       1  ZINC001039666729    0.0800
     43 H43       -11.4597   -1.1821   53.6947 H       1  ZINC001039666729    0.1200
     44 H44       -10.9432   -2.9053   51.4096 H       1  ZINC001039666729    0.0700
     45 H45       -10.6352   -1.2017   50.9799 H       1  ZINC001039666729    0.0900
@<TRIPOS>BOND
     1     1     2    1
     2     1    26    1
     3     1    27    1
     4     1    28    1
     5     2    25   ar
     6     2     3   ar
     7     3     4   ar
     8     3    29    1
     9     4     5   ar
    10     4    30    1
    11     5     6   ar
    12     6     7    1
    13     6    25   ar
    14     7    24    1
    15     7     8    1
    16     8     9    1
    17     8    31    1
    18     8    32    1
    19     9    10    1
    20     9    33    1
    21     9    34    1
    22    10    11   am
    23    10    35    1
    24    11    12    2
    25    11    13    1
    26    13    14    1
    27    13    36    1
    28    13    37    1
    29    14    15    1
    30    14    38    1
    31    14    39    1
    32    15    16   am
    33    15    23    1
    34    16    17    2
    35    16    18    1
    36    18    22    1
    37    18    19    2
    38    19    20    1
    39    20    21    1
    40    20    40    1
    41    21    22    2
    42    22    41    1
    43    23    24    1
    44    23    42    1
    45    23    43    1
    46    24    44    1
    47    24    45    1
@<TRIPOS>SUBSTRUCTURE
     1 ZINC001039666729        1 TEMP              0 ****  ****    0 ROOT


##########                                Name:    ZINC000151850193
##########                DOCK_Rotatable_Bonds:                  11
##########                         Heavy_Atoms:                  23
##########                    Molecular_Weight:             328.452
##########                DOCK_Rotatable_Bonds:                  11
##########                       Formal_Charge:            0.039999
##########                     HBond_Acceptors:                   6
##########                        HBond_Donors:                   2
##########                         Heavy_Atoms:                  23
##########                          Grid_Score:          -28.238857
##########                     Grid_vdw_energy:          -28.461098
##########                      Grid_es_energy:            0.222241
##########           Internal_energy_repulsive:           54.035847

@<TRIPOS>MOLECULE
ZINC000151850193
 55 55 1 0 0
SMALL
USER_CHARGES


@<TRIPOS>ATOM
      1 C1          1.5950    3.6874   45.1516 C.3     1  ZINC000151850193   -0.1500
      2 C2          0.2639    3.7378   45.9045 C.3     1  ZINC000151850193   -0.1000
      3 C3          0.2874    2.7240   47.0502 C.3     1  ZINC000151850193   -0.0800
      4 C4          1.4231    2.9764   48.0438 C.3     1  ZINC000151850193   -0.1000
      5 C5          1.4222    4.4500   48.4557 C.3     1  ZINC000151850193   -0.1500
      6 C6         -1.0825    2.5167   47.7174 C.3     1  ZINC000151850193    0.1400
      7 H7         -1.7506    3.3723   47.6181 H       1  ZINC000151850193    0.1000
      8 N8         -0.9962    2.0189   49.0925 N.am    1  ZINC000151850193   -0.7000
      9 C9         -1.5129    2.7431   50.1051 C.2     1  ZINC000151850193    0.5200
     10 O10        -2.0478    3.8076   49.8779 O.2     1  ZINC000151850193   -0.5300
     11 C11        -1.4256    2.2302   51.5194 C.3     1  ZINC000151850193   -0.1500
     12 C12        -2.4351    2.9750   52.3952 C.3     1  ZINC000151850193    0.1500
     13 N13        -3.7952    2.6221   51.9807 N.am    1  ZINC000151850193   -0.7100
     14 C14        -4.8419    2.9291   52.7724 C.2     1  ZINC000151850193    0.6500
     15 O15        -4.6573    3.4972   53.8305 O.2     1  ZINC000151850193   -0.5600
     16 O16        -6.0920    2.6062   52.3907 O.3     1  ZINC000151850193   -0.3700
     17 C17        -7.1672    2.9341   53.3097 C.3     1  ZINC000151850193    0.1400
     18 C18        -7.1955    4.4459   53.5431 C.3     1  ZINC000151850193   -0.1800
     19 C19        -8.5027    2.4851   52.7133 C.3     1  ZINC000151850193   -0.1400
     20 C20        -6.9365    2.2167   54.6414 C.3     1  ZINC000151850193   -0.1800
     21 C21        -1.3351    1.4139   46.6758 C.3     1  ZINC000151850193   -0.1700
     22 C22         0.1923    1.2624   46.5815 C.3     1  ZINC000151850193    0.0700
     23 H23         0.5536    1.1055   45.5651 H       1  ZINC000151850193    0.0800
     24 O24         0.7332    0.3241   47.5137 O.3     1  ZINC000151850193   -0.3700
     25 C25         0.9099   -0.9896   46.9800 C.3     1  ZINC000151850193    0.0300
     26 H26         2.4051    3.9619   45.8272 H       1  ZINC000151850193    0.0600
     27 H27         1.7616    2.6780   44.7756 H       1  ZINC000151850193    0.0600
     28 H28         1.5662    4.3864   44.3157 H       1  ZINC000151850193    0.0600
     29 H29         0.1125    4.7390   46.3083 H       1  ZINC000151850193    0.0700
     30 H30        -0.5496    3.4948   45.2210 H       1  ZINC000151850193    0.0700
     31 H31         1.2796    2.3525   48.9259 H       1  ZINC000151850193    0.0700
     32 H32         2.3764    2.7306   47.5759 H       1  ZINC000151850193    0.0700
     33 H33         1.6382    5.0705   47.5860 H       1  ZINC000151850193    0.0500
     34 H34         0.4438    4.7145   48.8568 H       1  ZINC000151850193    0.0500
     35 H35         2.1840    4.6147   49.2177 H       1  ZINC000151850193    0.0500
     36 H36        -0.5673    1.1682   49.2743 H       1  ZINC000151850193    0.4100
     37 H37        -1.6498    1.1636   51.5335 H       1  ZINC000151850193    0.1000
     38 H38        -0.4193    2.3951   51.9043 H       1  ZINC000151850193    0.1000
     39 H39        -2.2885    2.6938   53.4381 H       1  ZINC000151850193    0.0800
     40 H40        -2.2889    4.0495   52.2847 H       1  ZINC000151850193    0.0800
     41 H41        -3.9425    2.1675   51.1366 H       1  ZINC000151850193    0.4100
     42 H42        -7.3598    4.9569   52.5944 H       1  ZINC000151850193    0.0600
     43 H43        -8.0026    4.6920   54.2330 H       1  ZINC000151850193    0.0700
     44 H44        -6.2441    4.7658   53.9680 H       1  ZINC000151850193    0.0900
     45 H45        -8.4826    1.4080   52.5470 H       1  ZINC000151850193    0.0700
     46 H46        -9.3099    2.7312   53.4031 H       1  ZINC000151850193    0.0800
     47 H47        -8.6671    2.9961   51.7646 H       1  ZINC000151850193    0.0700
     48 H48        -5.9851    2.5366   55.0662 H       1  ZINC000151850193    0.0900
     49 H49        -7.7437    2.4629   55.3313 H       1  ZINC000151850193    0.0700
     50 H50        -6.9164    1.1397   54.4751 H       1  ZINC000151850193    0.0600
     51 H51        -1.8366    0.5358   47.0825 H       1  ZINC000151850193    0.0800
     52 H52        -1.7953    1.7780   45.7573 H       1  ZINC000151850193    0.1000
     53 H53        -0.0531   -1.3809   46.6518 H       1  ZINC000151850193    0.0400
     54 H54         1.5933   -0.9484   46.1319 H       1  ZINC000151850193    0.0400
     55 H55         1.3240   -1.6416   47.7490 H       1  ZINC000151850193    0.0900
@<TRIPOS>BOND
     1     1     2    1
     2     1    26    1
     3     1    27    1
     4     1    28    1
     5     2     3    1
     6     2    29    1
     7     2    30    1
     8     3    22    1
     9     3     4    1
    10     3     6    1
    11     4     5    1
    12     4    31    1
    13     4    32    1
    14     5    33    1
    15     5    34    1
    16     5    35    1
    17     6     7    1
    18     6     8    1
    19     6    21    1
    20     8     9   am
    21     8    36    1
    22     9    10    2
    23     9    11    1
    24    11    12    1
    25    11    37    1
    26    11    38    1
    27    12    13    1
    28    12    39    1
    29    12    40    1
    30    13    14   am
    31    13    41    1
    32    14    15    2
    33    14    16    1
    34    16    17    1
    35    17    18    1
    36    17    19    1
    37    17    20    1
    38    18    42    1
    39    18    43    1
    40    18    44    1
    41    19    45    1
    42    19    46    1
    43    19    47    1
    44    20    48    1
    45    20    49    1
    46    20    50    1
    47    21    22    1
    48    21    51    1
    49    21    52    1
    50    22    23    1
    51    22    24    1
    52    24    25    1
    53    25    53    1
    54    25    54    1
    55    25    55    1
@<TRIPOS>SUBSTRUCTURE
     1 ZINC000151850193        1 TEMP              0 ****  ****    0 ROOT


##########                                Name:    ZINC000437443367
##########                DOCK_Rotatable_Bonds:                   8
##########                         Heavy_Atoms:                  24
##########                    Molecular_Weight:             334.434
##########                DOCK_Rotatable_Bonds:                   8
##########                       Formal_Charge:          -0.0500003
##########                     HBond_Acceptors:                   5
##########                        HBond_Donors:                   1
##########                         Heavy_Atoms:                  24
##########                          Grid_Score:          -28.235798
##########                     Grid_vdw_energy:          -28.649082
##########                      Grid_es_energy:            0.413284
##########           Internal_energy_repulsive:           24.135078

@<TRIPOS>MOLECULE
ZINC000437443367
 51 52 1 0 0
SMALL
USER_CHARGES


@<TRIPOS>ATOM
      1 C1         -6.5985    0.2409   51.6589 C.3     1  ZINC000437443367   -0.1200
      2 C2         -5.5789    1.2585   52.1012 C.ar    1  ZINC000437443367   -0.1000
      3 C3         -4.2503    1.0960   51.7627 C.ar    1  ZINC000437443367   -0.1200
      4 C4         -3.3107    2.0346   52.1709 C.ar    1  ZINC000437443367    0.1400
      5 N5         -1.9648    1.8724   51.8288 N.am    1  ZINC000437443367   -0.6400
      6 C6         -1.3908    2.7051   50.9380 C.2     1  ZINC000437443367    0.5000
      7 O7         -2.0422    3.5960   50.4328 O.2     1  ZINC000437443367   -0.4800
      8 C8          0.0469    2.5318   50.5727 C.2     1  ZINC000437443367    0.5100
      9 O9          0.9156    2.8839   51.3436 O.2     1  ZINC000437443367   -0.5200
     10 N10         0.3796    1.9844   49.3868 N.am    1  ZINC000437443367   -0.5700
     11 C11         1.7898    1.8144   49.0284 C.3     1  ZINC000437443367    0.0900
     12 C12         2.4366    0.7975   49.9711 C.3     1  ZINC000437443367   -0.1200
     13 C13         3.8020    0.3852   49.4173 C.3     1  ZINC000437443367   -0.0900
     14 C14         4.7000    1.6187   49.3040 C.3     1  ZINC000437443367   -0.1400
     15 C15         4.4487   -0.6317   50.3600 C.3     1  ZINC000437443367   -0.1500
     16 C16        -0.6692    1.5595   48.4564 C.3     1  ZINC000437443367    0.1300
     17 C17        -0.8245    2.5973   47.3256 C.3     1  ZINC000437443367   -0.1300
     18 C18         0.0473    2.0378   46.1741 C.3     1  ZINC000437443367   -0.1300
     19 C19        -0.2000    0.5117   46.2688 C.3     1  ZINC000437443367   -0.1200
     20 C20        -0.2720    0.2334   47.7845 C.3     1  ZINC000437443367   -0.1400
     21 C21        -3.7105    3.1345   52.9188 C.ar    1  ZINC000437443367   -0.1100
     22 C22        -5.0407    3.2930   53.2551 C.ar    1  ZINC000437443367   -0.1300
     23 C23        -5.9762    2.3592   52.8424 C.ar    1  ZINC000437443367    0.0800
     24 F24        -7.2768    2.5161   53.1725 F       1  ZINC000437443367   -0.1400
     25 H25        -6.9962    0.5248   50.6846 H       1  ZINC000437443367    0.0800
     26 H26        -6.1264   -0.7389   51.5869 H       1  ZINC000437443367    0.0700
     27 H27        -7.4104    0.2005   52.3850 H       1  ZINC000437443367    0.0700
     28 H28        -3.9415    0.2398   51.1814 H       1  ZINC000437443367    0.1400
     29 H29        -1.4442    1.1606   52.2327 H       1  ZINC000437443367    0.4200
     30 H30         1.8630    1.4558   48.0017 H       1  ZINC000437443367    0.0900
     31 H31         2.3051    2.7708   49.1169 H       1  ZINC000437443367    0.1000
     32 H32         2.5644    1.2456   50.9565 H       1  ZINC000437443367    0.0700
     33 H33         1.7968   -0.0813   50.0518 H       1  ZINC000437443367    0.0600
     34 H34         3.6741   -0.0629   48.4319 H       1  ZINC000437443367    0.0600
     35 H35         4.8278    2.0668   50.2894 H       1  ZINC000437443367    0.0600
     36 H36         5.6726    1.3250   48.9094 H       1  ZINC000437443367    0.0400
     37 H37         4.2392    2.3431   48.6324 H       1  ZINC000437443367    0.0600
     38 H38         3.8090   -1.5105   50.4408 H       1  ZINC000437443367    0.0500
     39 H39         5.4214   -0.9254   49.9655 H       1  ZINC000437443367    0.0500
     40 H40         4.5766   -0.1836   51.3453 H       1  ZINC000437443367    0.0500
     41 H41        -1.6136    1.4408   48.9876 H       1  ZINC000437443367    0.1000
     42 H42        -1.8666    2.6695   47.0146 H       1  ZINC000437443367    0.0800
     43 H43        -0.4530    3.5703   47.6472 H       1  ZINC000437443367    0.0700
     44 H44        -0.2889    2.4245   45.2121 H       1  ZINC000437443367    0.0700
     45 H45         1.0995    2.2696   46.3385 H       1  ZINC000437443367    0.0700
     46 H46        -1.1413    0.2470   45.7872 H       1  ZINC000437443367    0.0700
     47 H47         0.6274   -0.0375   45.8191 H       1  ZINC000437443367    0.0700
     48 H48         0.7010   -0.0941   48.1507 H       1  ZINC000437443367    0.0800
     49 H49        -1.0241   -0.5287   47.9888 H       1  ZINC000437443367    0.0700
     50 H50        -2.9819    3.8652   53.2374 H       1  ZINC000437443367    0.1600
     51 H51        -5.3521    4.1481   53.8367 H       1  ZINC000437443367    0.1400
@<TRIPOS>BOND
     1     1     2    1
     2     1    25    1
     3     1    26    1
     4     1    27    1
     5     2    23   ar
     6     2     3   ar
     7     3     4   ar
     8     3    28    1
     9     4     5    1
    10     4    21   ar
    11     5     6   am
    12     5    29    1
    13     6     7    2
    14     6     8    1
    15     8     9    2
    16     8    10   am
    17    10    11    1
    18    10    16    1
    19    11    12    1
    20    11    30    1
    21    11    31    1
    22    12    13    1
    23    12    32    1
    24    12    33    1
    25    13    14    1
    26    13    15    1
    27    13    34    1
    28    14    35    1
    29    14    36    1
    30    14    37    1
    31    15    38    1
    32    15    39    1
    33    15    40    1
    34    16    20    1
    35    16    17    1
    36    16    41    1
    37    17    18    1
    38    17    42    1
    39    17    43    1
    40    18    19    1
    41    18    44    1
    42    18    45    1
    43    19    20    1
    44    19    46    1
    45    19    47    1
    46    20    48    1
    47    20    49    1
    48    21    22   ar
    49    21    50    1
    50    22    23   ar
    51    22    51    1
    52    23    24    1
@<TRIPOS>SUBSTRUCTURE
     1 ZINC000437443367        1 TEMP              0 ****  ****    0 ROOT


##########                                Name:    ZINC001356153960
##########                DOCK_Rotatable_Bonds:                   8
##########                         Heavy_Atoms:                  24
##########                    Molecular_Weight:             334.366
##########                DOCK_Rotatable_Bonds:                   8
##########                       Formal_Charge:           0.0100003
##########                     HBond_Acceptors:                   6
##########                        HBond_Donors:                   1
##########                         Heavy_Atoms:                  24
##########                          Grid_Score:          -28.235216
##########                     Grid_vdw_energy:          -28.467932
##########                      Grid_es_energy:            0.232715
##########           Internal_energy_repulsive:           16.717976

@<TRIPOS>MOLECULE
ZINC001356153960
 44 46 1 0 0
SMALL
USER_CHARGES


@<TRIPOS>ATOM
      1 O1        -10.5898   -3.0195   55.3955 O.2     1  ZINC001356153960   -0.5200
      2 C2        -11.3419   -3.0170   54.4433 C.2     1  ZINC001356153960    0.5100
      3 N3        -12.4940   -3.7148   54.4928 N.am    1  ZINC001356153960   -0.7000
      4 C4        -12.8411   -4.4712   55.6985 C.3     1  ZINC001356153960    0.1300
      5 C5        -14.2204   -4.0337   56.1956 C.3     1  ZINC001356153960   -0.0800
      6 H6        -14.9706   -4.1938   55.4212 H       1  ZINC001356153960    0.0900
      7 C7        -14.5908   -4.7880   57.4514 C.2     1  ZINC001356153960   -0.1700
      8 C8        -15.0933   -3.9861   58.3503 C.2     1  ZINC001356153960   -0.1600
      9 C9        -15.1418   -2.5633   57.8439 C.3     1  ZINC001356153960   -0.1000
     10 C10       -14.1934   -2.5472   56.6203 C.3     1  ZINC001356153960   -0.1200
     11 C11       -10.9880   -2.2455   53.2133 C.2     1  ZINC001356153960    0.5100
     12 O12       -11.0932   -2.7634   52.1209 O.2     1  ZINC001356153960   -0.5100
     13 N13       -10.5520   -0.9745   53.3174 N.am    1  ZINC001356153960   -0.5500
     14 C14       -10.2050   -0.2181   52.1117 C.3     1  ZINC001356153960    0.1300
     15 C15        -8.7109   -0.0330   52.0474 C.ar    1  ZINC001356153960   -0.1600
     16 C16        -7.8859   -1.1282   51.8755 C.ar    1  ZINC001356153960   -0.0300
     17 C17        -6.5155   -0.9593   51.8107 C.ar    1  ZINC001356153960   -0.1700
     18 C18        -5.9671    0.3065   51.9293 C.ar    1  ZINC001356153960    0.1400
     19 F19        -4.6274    0.4708   51.8711 F       1  ZINC001356153960   -0.1300
     20 C20        -6.7923    1.4039   52.1073 C.ar    1  ZINC001356153960   -0.2000
     21 C21        -8.1646    1.2342   52.1663 C.ar    1  ZINC001356153960    0.1500
     22 F22        -8.9709    2.3040   52.3403 F       1  ZINC001356153960   -0.1200
     23 C23       -10.4252   -0.3491   54.6362 C.3     1  ZINC001356153960    0.0700
     24 C24       -11.7152   -0.0440   55.4002 C.3     1  ZINC001356153960   -0.1900
     25 C25       -10.9036    1.0969   54.7813 C.3     1  ZINC001356153960   -0.1800
     26 H26       -13.0933   -3.7162   53.7302 H       1  ZINC001356153960    0.4100
     27 H27       -12.8593   -5.5361   55.4666 H       1  ZINC001356153960    0.0800
     28 H28       -12.0983   -4.2807   56.4732 H       1  ZINC001356153960    0.0800
     29 H29       -14.4570   -5.8510   57.5874 H       1  ZINC001356153960    0.1200
     30 H30       -15.4299   -4.2983   59.3278 H       1  ZINC001356153960    0.1300
     31 H31       -16.1556   -2.3027   57.5399 H       1  ZINC001356153960    0.0800
     32 H32       -14.7875   -1.8748   58.6111 H       1  ZINC001356153960    0.0700
     33 H33       -13.1879   -2.2409   56.9090 H       1  ZINC001356153960    0.0800
     34 H34       -14.5835   -1.9069   55.8290 H       1  ZINC001356153960    0.0800
     35 H35       -10.5417   -0.7642   51.2306 H       1  ZINC001356153960    0.0900
     36 H36       -10.6909    0.7572   52.1423 H       1  ZINC001356153960    0.1400
     37 H37        -8.3125   -2.1165   51.7876 H       1  ZINC001356153960    0.1600
     38 H38        -5.8720   -1.8155   51.6723 H       1  ZINC001356153960    0.1400
     39 H39        -6.3654    2.3915   52.2003 H       1  ZINC001356153960    0.1500
     40 H40        -9.5550   -0.6522   55.2185 H       1  ZINC001356153960    0.1400
     41 H41       -12.6582   -0.3084   54.9217 H       1  ZINC001356153960    0.1400
     42 H42       -11.6935   -0.1459   56.4852 H       1  ZINC001356153960    0.0900
     43 H43       -10.3484    1.7450   55.4594 H       1  ZINC001356153960    0.1000
     44 H44       -11.3127    1.5830   53.8955 H       1  ZINC001356153960    0.0900
@<TRIPOS>BOND
     1     1     2    2
     2     2     3   am
     3     2    11    1
     4     3     4    1
     5     3    26    1
     6     4     5    1
     7     4    27    1
     8     4    28    1
     9     5     6    1
    10     5    10    1
    11     5     7    1
    12     7     8    2
    13     7    29    1
    14     8     9    1
    15     8    30    1
    16     9    10    1
    17     9    31    1
    18     9    32    1
    19    10    33    1
    20    10    34    1
    21    11    12    2
    22    11    13   am
    23    13    14    1
    24    13    23    1
    25    14    15    1
    26    14    35    1
    27    14    36    1
    28    15    21   ar
    29    15    16   ar
    30    16    17   ar
    31    16    37    1
    32    17    18   ar
    33    17    38    1
    34    18    19    1
    35    18    20   ar
    36    20    21   ar
    37    20    39    1
    38    21    22    1
    39    23    25    1
    40    23    24    1
    41    23    40    1
    42    24    25    1
    43    24    41    1
    44    24    42    1
    45    25    43    1
    46    25    44    1
@<TRIPOS>SUBSTRUCTURE
     1 ZINC001356153960        1 TEMP              0 ****  ****    0 ROOT


##########                                Name:    ZINC001345266033
##########                DOCK_Rotatable_Bonds:                   4
##########                         Heavy_Atoms:                  29
##########                    Molecular_Weight:               389.5
##########                DOCK_Rotatable_Bonds:                   4
##########                       Formal_Charge:          -0.0100001
##########                     HBond_Acceptors:                   6
##########                        HBond_Donors:                   0
##########                         Heavy_Atoms:                  29
##########                          Grid_Score:          -28.193005
##########                     Grid_vdw_energy:          -28.146004
##########                      Grid_es_energy:           -0.047001
##########           Internal_energy_repulsive:            7.468367

@<TRIPOS>MOLECULE
ZINC001345266033
 56 61 1 0 0
SMALL
USER_CHARGES


@<TRIPOS>ATOM
      1 C1         -8.6457    3.7992   61.6139 C.ar    1  ZINC001345266033   -0.1100
      2 C2         -8.8269    3.1582   60.3911 C.ar    1  ZINC001345266033   -0.0900
      3 C3         -9.1719    1.8392   60.3345 C.ar    1  ZINC001345266033   -0.1100
      4 C4         -9.3450    1.1235   61.5215 C.ar    1  ZINC001345266033    0.0000
      5 C5         -9.1609    1.7723   62.7696 C.ar    1  ZINC001345266033   -0.1100
      6 C6         -8.8066    3.1302   62.7900 C.ar    1  ZINC001345266033   -0.0900
      7 C7         -9.3407    1.0292   63.9475 C.ar    1  ZINC001345266033    0.1700
      8 N8         -9.6718   -0.2386   63.9000 N.ar    1  ZINC001345266033   -0.4800
      9 C9         -9.8593   -0.9065   62.7739 C.ar    1  ZINC001345266033    0.0900
     10 C10        -9.7137   -0.2916   61.5371 C.ar    1  ZINC001345266033   -0.0700
     11 C11        -9.9237   -1.0398   60.2831 C.2     1  ZINC001345266033    0.2300
     12 N12        -9.0536   -1.8218   59.6847 N.2     1  ZINC001345266033   -0.2600
     13 N13        -9.5695   -2.3131   58.6152 N.2     1  ZINC001345266033   -0.3000
     14 C14       -10.7996   -1.8756   58.4649 C.2     1  ZINC001345266033    0.3600
     15 N15       -11.6620   -2.1920   57.4302 N.3     1  ZINC001345266033   -0.4600
     16 C16       -11.2755   -1.5018   56.1936 C.3     1  ZINC001345266033    0.0600
     17 C17       -12.3607   -1.6896   55.1316 C.3     1  ZINC001345266033   -0.1100
     18 C18       -12.4942   -3.1819   54.8055 C.3     1  ZINC001345266033   -0.0800
     19 C19       -12.7364   -3.9456   56.1118 C.3     1  ZINC001345266033   -0.1300
     20 C20       -14.1836   -4.2257   56.5136 C.3     1  ZINC001345266033   -0.1600
     21 C21       -13.2924   -5.3651   56.0140 C.3     1  ZINC001345266033   -0.1700
     22 C22       -11.7309   -3.6468   57.2277 C.3     1  ZINC001345266033    0.1100
     23 N23       -11.0703   -1.0557   59.5218 N.pl3   1  ZINC001345266033   -0.4600
     24 C24       -12.3185   -0.3356   59.7864 C.3     1  ZINC001345266033    0.1000
     25 C25       -13.4126   -1.3349   60.1675 C.3     1  ZINC001345266033   -0.1400
     26 H26       -13.3924   -2.1951   59.4982 H       1  ZINC001345266033    0.1000
     27 C27       -14.8030   -0.6549   60.1338 C.3     1  ZINC001345266033   -0.1500
     28 C28       -15.4883   -1.2548   61.3880 C.3     1  ZINC001345266033    0.0500
     29 O29       -14.4137   -1.3449   62.3482 O.3     1  ZINC001345266033   -0.3700
     30 C30       -13.2448   -1.7864   61.6312 C.3     1  ZINC001345266033    0.0300
     31 H31        -8.3686    4.8429   61.6304 H       1  ZINC001345266033    0.1300
     32 H32        -8.6927    3.7130   59.4742 H       1  ZINC001345266033    0.1300
     33 H33        -9.3104    1.3529   59.3802 H       1  ZINC001345266033    0.1600
     34 H34        -8.6620    3.6407   63.7307 H       1  ZINC001345266033    0.1400
     35 H35        -9.2040    1.5084   64.9056 H       1  ZINC001345266033    0.1700
     36 H36       -10.1308   -1.9509   62.8169 H       1  ZINC001345266033    0.1700
     37 H37       -11.1482   -0.4386   56.3971 H       1  ZINC001345266033    0.0700
     38 H38       -10.3354   -1.9142   55.8275 H       1  ZINC001345266033    0.0500
     39 H39       -13.3107   -1.3135   55.5111 H       1  ZINC001345266033    0.0800
     40 H40       -12.0859   -1.1430   54.2296 H       1  ZINC001345266033    0.0800
     41 H41       -13.3359   -3.3354   54.1303 H       1  ZINC001345266033    0.0700
     42 H42       -11.5762   -3.5381   54.3380 H       1  ZINC001345266033    0.0700
     43 H43       -14.4243   -4.2038   57.5765 H       1  ZINC001345266033    0.0900
     44 H44       -14.9690   -3.8712   55.8459 H       1  ZINC001345266033    0.0900
     45 H45       -13.4914   -5.7602   55.0178 H       1  ZINC001345266033    0.1000
     46 H46       -12.9467   -6.0927   56.7483 H       1  ZINC001345266033    0.1000
     47 H47       -10.7481   -4.0229   56.9438 H       1  ZINC001345266033    0.0600
     48 H48       -12.0555   -4.1288   58.1501 H       1  ZINC001345266033    0.0800
     49 H49       -12.1662    0.3664   60.6062 H       1  ZINC001345266033    0.1100
     50 H50       -12.6199    0.2097   58.8922 H       1  ZINC001345266033    0.1100
     51 H51       -14.7089    0.4274   60.2221 H       1  ZINC001345266033    0.0800
     52 H52       -15.3459   -0.9242   59.2277 H       1  ZINC001345266033    0.0900
     53 H53       -16.2728   -0.5910   61.7512 H       1  ZINC001345266033    0.1000
     54 H54       -15.8914   -2.2435   61.1692 H       1  ZINC001345266033    0.0600
     55 H55       -13.1679   -2.8725   61.6808 H       1  ZINC001345266033    0.0600
     56 H56       -12.3527   -1.3297   62.0598 H       1  ZINC001345266033    0.0900
@<TRIPOS>BOND
     1     1     6   ar
     2     1     2   ar
     3     1    31    1
     4     2     3   ar
     5     2    32    1
     6     3     4   ar
     7     3    33    1
     8     4    10   ar
     9     4     5   ar
    10     5     6   ar
    11     5     7   ar
    12     6    34    1
    13     7     8   ar
    14     7    35    1
    15     8     9   ar
    16     9    10   ar
    17     9    36    1
    18    10    11    1
    19    11    23    1
    20    11    12    2
    21    12    13    1
    22    13    14    2
    23    14    15    1
    24    14    23    1
    25    15    22    1
    26    15    16    1
    27    16    17    1
    28    16    37    1
    29    16    38    1
    30    17    18    1
    31    17    39    1
    32    17    40    1
    33    18    19    1
    34    18    41    1
    35    18    42    1
    36    19    21    1
    37    19    20    1
    38    19    22    1
    39    20    21    1
    40    20    43    1
    41    20    44    1
    42    21    45    1
    43    21    46    1
    44    22    47    1
    45    22    48    1
    46    23    24    1
    47    24    25    1
    48    24    49    1
    49    24    50    1
    50    25    26    1
    51    25    30    1
    52    25    27    1
    53    27    28    1
    54    27    51    1
    55    27    52    1
    56    28    29    1
    57    28    53    1
    58    28    54    1
    59    29    30    1
    60    30    55    1
    61    30    56    1
@<TRIPOS>SUBSTRUCTURE
     1 ZINC001345266033        1 TEMP              0 ****  ****    0 ROOT


##########                                Name:    ZINC001296589646
##########                DOCK_Rotatable_Bonds:                   8
##########                         Heavy_Atoms:                  29
##########                    Molecular_Weight:             398.548
##########                DOCK_Rotatable_Bonds:                   8
##########                       Formal_Charge:          -0.0200008
##########                     HBond_Acceptors:                   6
##########                        HBond_Donors:                   0
##########                         Heavy_Atoms:                  29
##########                          Grid_Score:          -28.191278
##########                     Grid_vdw_energy:          -27.670168
##########                      Grid_es_energy:           -0.521110
##########           Internal_energy_repulsive:           19.279638

@<TRIPOS>MOLECULE
ZINC001296589646
 63 66 1 0 0
SMALL
USER_CHARGES


@<TRIPOS>ATOM
      1 C1        -15.4581   -1.4820   55.0394 C.3     1  ZINC001296589646   -0.1500
      2 C2        -14.5479   -2.4721   54.3099 C.3     1  ZINC001296589646    0.0500
      3 O3        -13.4586   -1.7663   53.7121 O.3     1  ZINC001296589646   -0.3600
      4 C4        -12.1798   -2.3547   53.9580 C.3     1  ZINC001296589646    0.1800
      5 C5        -11.8628   -2.3466   55.4313 C.2     1  ZINC001296589646    0.1500
      6 N6        -11.7414   -3.3911   56.2008 N.2     1  ZINC001296589646   -0.2600
      7 N7        -11.4677   -3.0241   57.4018 N.2     1  ZINC001296589646   -0.3200
      8 C8        -11.3993   -1.7152   57.4634 C.2     1  ZINC001296589646    0.3600
      9 N9        -11.1252   -0.9567   58.5904 N.3     1  ZINC001296589646   -0.4300
     10 C10       -12.2166   -1.0759   59.5907 C.3     1  ZINC001296589646    0.0300
     11 C11       -11.5354   -0.6405   60.9124 C.3     1  ZINC001296589646   -0.1200
     12 C12       -10.1138   -1.2338   60.7804 C.3     1  ZINC001296589646   -0.1000
     13 H13       -10.0520   -2.1880   61.3034 H       1  ZINC001296589646    0.0800
     14 C14        -9.0766   -0.2561   61.3364 C.3     1  ZINC001296589646   -0.1400
     15 C15        -9.9022   -1.4382   59.2687 C.3     1  ZINC001296589646    0.0500
     16 N16       -11.6434   -1.2422   56.2070 N.pl3   1  ZINC001296589646   -0.4600
     17 C17       -11.6739    0.1588   55.7798 C.3     1  ZINC001296589646    0.1000
     18 C18       -10.2424    0.6803   55.6388 C.3     1  ZINC001296589646   -0.1300
     19 C19       -10.2258    1.8713   54.6785 C.3     1  ZINC001296589646   -0.0500
     20 H20       -10.9175    1.6853   53.8570 H       1  ZINC001296589646    0.0800
     21 C21       -10.6510    3.1360   55.4271 C.3     1  ZINC001296589646   -0.1500
     22 C22        -8.8339    2.0556   54.1310 C.ar    1  ZINC001296589646   -0.0800
     23 C23        -7.8207    2.5071   54.9561 C.ar    1  ZINC001296589646   -0.1100
     24 C24        -6.5440    2.6762   54.4538 C.ar    1  ZINC001296589646   -0.1200
     25 C25        -6.2803    2.3934   53.1267 C.ar    1  ZINC001296589646   -0.1200
     26 C26        -7.2932    1.9412   52.3018 C.ar    1  ZINC001296589646   -0.1200
     27 C27        -8.5690    1.7679   52.8051 C.ar    1  ZINC001296589646   -0.1200
     28 C28       -11.0723   -1.6297   53.1458 C.3     1  ZINC001296589646   -0.1400
     29 C29       -11.1892   -2.3514   51.7797 C.3     1  ZINC001296589646    0.0600
     30 O30       -11.4942   -3.7176   52.1021 O.3     1  ZINC001296589646   -0.3700
     31 C31       -12.1166   -3.7890   53.3902 C.3     1  ZINC001296589646    0.0400
     32 H32       -14.9142   -1.0326   55.8702 H       1  ZINC001296589646    0.0600
     33 H33       -15.7742   -0.7014   54.3474 H       1  ZINC001296589646    0.0700
     34 H34       -16.3344   -2.0067   55.4201 H       1  ZINC001296589646    0.0700
     35 H35       -14.1612   -3.2020   55.0211 H       1  ZINC001296589646    0.0500
     36 H36       -15.1168   -2.9859   53.5351 H       1  ZINC001296589646    0.0600
     37 H37       -13.0400   -0.4058   59.3434 H       1  ZINC001296589646    0.0900
     38 H38       -12.5652   -2.1064   59.6589 H       1  ZINC001296589646    0.0600
     39 H39       -11.4946    0.4462   60.9856 H       1  ZINC001296589646    0.0800
     40 H40       -12.0529   -1.0669   61.7718 H       1  ZINC001296589646    0.0800
     41 H41        -9.2703   -0.0843   62.3953 H       1  ZINC001296589646    0.0600
     42 H42        -8.0785   -0.6763   61.2131 H       1  ZINC001296589646    0.0600
     43 H43        -9.1423    0.6889   60.7971 H       1  ZINC001296589646    0.0600
     44 H44        -9.7509   -2.4962   59.0547 H       1  ZINC001296589646    0.0800
     45 H45        -9.0401   -0.8618   58.9332 H       1  ZINC001296589646    0.0900
     46 H46       -12.1845    0.2350   54.8199 H       1  ZINC001296589646    0.1100
     47 H47       -12.2057    0.7537   56.5225 H       1  ZINC001296589646    0.1000
     48 H48        -9.8726    0.9952   56.6146 H       1  ZINC001296589646    0.0800
     49 H49        -9.6043   -0.1117   55.2467 H       1  ZINC001296589646    0.0700
     50 H50       -10.6390    3.9845   54.7430 H       1  ZINC001296589646    0.0600
     51 H51       -11.6577    3.0026   55.8230 H       1  ZINC001296589646    0.0600
     52 H52        -9.9591    3.3220   56.2486 H       1  ZINC001296589646    0.0600
     53 H53        -8.0268    2.7280   55.9930 H       1  ZINC001296589646    0.1200
     54 H54        -5.7527    3.0295   55.0983 H       1  ZINC001296589646    0.1200
     55 H55        -5.2829    2.5262   52.7342 H       1  ZINC001296589646    0.1200
     56 H56        -7.0871    1.7206   51.2649 H       1  ZINC001296589646    0.1200
     57 H57        -9.3603    1.4146   52.1607 H       1  ZINC001296589646    0.1200
     58 H58       -11.2895   -0.5660   53.0480 H       1  ZINC001296589646    0.1000
     59 H59       -10.0904   -1.7888   53.5914 H       1  ZINC001296589646    0.1000
     60 H60       -11.9933   -1.9137   51.1881 H       1  ZINC001296589646    0.0700
     61 H61       -10.2449   -2.2922   51.2385 H       1  ZINC001296589646    0.0900
     62 H62       -11.5260   -4.4228   54.0517 H       1  ZINC001296589646    0.1000
     63 H63       -13.1244   -4.1925   53.2921 H       1  ZINC001296589646    0.0800
@<TRIPOS>BOND
     1     1     2    1
     2     1    32    1
     3     1    33    1
     4     1    34    1
     5     2     3    1
     6     2    35    1
     7     2    36    1
     8     3     4    1
     9     4    31    1
    10     4     5    1
    11     4    28    1
    12     5    16    1
    13     5     6    2
    14     6     7    1
    15     7     8    2
    16     8     9    1
    17     8    16    1
    18     9    15    1
    19     9    10    1
    20    10    11    1
    21    10    37    1
    22    10    38    1
    23    11    12    1
    24    11    39    1
    25    11    40    1
    26    12    13    1
    27    12    14    1
    28    12    15    1
    29    14    41    1
    30    14    42    1
    31    14    43    1
    32    15    44    1
    33    15    45    1
    34    16    17    1
    35    17    18    1
    36    17    46    1
    37    17    47    1
    38    18    19    1
    39    18    48    1
    40    18    49    1
    41    19    20    1
    42    19    21    1
    43    19    22    1
    44    21    50    1
    45    21    51    1
    46    21    52    1
    47    22    27   ar
    48    22    23   ar
    49    23    24   ar
    50    23    53    1
    51    24    25   ar
    52    24    54    1
    53    25    26   ar
    54    25    55    1
    55    26    27   ar
    56    26    56    1
    57    27    57    1
    58    28    29    1
    59    28    58    1
    60    28    59    1
    61    29    30    1
    62    29    60    1
    63    29    61    1
    64    30    31    1
    65    31    62    1
    66    31    63    1
@<TRIPOS>SUBSTRUCTURE
     1 ZINC001296589646        1 TEMP              0 ****  ****    0 ROOT


##########                                Name:    ZINC001345966764
##########                DOCK_Rotatable_Bonds:                  10
##########                         Heavy_Atoms:                  22
##########                    Molecular_Weight:             333.258
##########                DOCK_Rotatable_Bonds:                  10
##########                       Formal_Charge:           0.0099997
##########                     HBond_Acceptors:                  11
##########                        HBond_Donors:                   4
##########                         Heavy_Atoms:                  22
##########                          Grid_Score:          -28.190342
##########                     Grid_vdw_energy:          -26.555965
##########                      Grid_es_energy:           -1.634376
##########           Internal_energy_repulsive:            5.029598

@<TRIPOS>MOLECULE
ZINC001345966764
 38 38 1 0 0
SMALL
USER_CHARGES


@<TRIPOS>ATOM
      1 N1         -8.7784    2.5531   55.9844 N.3     1  ZINC001345966764   -0.8400
      2 C2         -7.8717    1.9191   55.0179 C.3     1  ZINC001345966764    0.0200
      3 C3         -8.6124    1.6882   53.6993 C.3     1  ZINC001345966764    0.2800
      4 F4         -9.7782    0.9537   53.9417 F       1  ZINC001345966764   -0.1900
      5 F5         -8.9481    2.9217   53.1308 F       1  ZINC001345966764   -0.1800
      6 C6         -7.7111    0.9116   52.7373 C.3     1  ZINC001345966764    0.0800
      7 N7         -6.4665    1.6552   52.5265 N.am    1  ZINC001345966764   -0.7000
      8 C8         -5.3982    1.0402   51.9816 C.2     1  ZINC001345966764    0.5100
      9 O9         -5.4666   -0.1298   51.6671 O.2     1  ZINC001345966764   -0.5100
     10 C10        -4.1290    1.7992   51.7649 C.2     1  ZINC001345966764    0.5100
     11 O11        -4.0535    2.9631   52.0999 O.2     1  ZINC001345966764   -0.5100
     12 N12        -3.0688    1.1911   51.1973 N.am    1  ZINC001345966764   -0.7000
     13 C13        -1.8241    1.9346   50.9865 C.3     1  ZINC001345966764    0.1200
     14 C14        -1.7259    2.3595   49.5200 C.3     1  ZINC001345966764    0.0600
     15 H15        -2.6477    2.8485   49.2048 H       1  ZINC001345966764    0.0900
     16 C16        -0.5194    3.3015   49.3126 C.3     1  ZINC001345966764   -0.1400
     17 C17         0.0381    2.8984   47.9290 C.3     1  ZINC001345966764   -0.1500
     18 C18        -0.8977    1.7607   47.4643 C.3     1  ZINC001345966764    0.0300
     19 H19        -1.6921    2.1572   46.8320 H       1  ZINC001345966764    0.1200
     20 C20        -0.1031    0.6915   46.7117 C.3     1  ZINC001345966764    0.4600
     21 F21        -0.9873   -0.1673   46.0500 F       1  ZINC001345966764   -0.1700
     22 F22         0.7370    1.3063   45.7771 F       1  ZINC001345966764   -0.1700
     23 F23         0.6678   -0.0422   47.6198 F       1  ZINC001345966764   -0.1700
     24 O24        -1.4521    1.2152   48.6823 O.3     1  ZINC001345966764   -0.3500
     25 H25        -8.2835    2.8233   56.8211 H       1  ZINC001345966764    0.3500
     26 H26        -9.2507    3.3438   55.5722 H       1  ZINC001345966764    0.3600
     27 H27        -7.0141    2.5690   54.8440 H       1  ZINC001345966764    0.1100
     28 H28        -7.5288    0.9634   55.4143 H       1  ZINC001345966764    0.0700
     29 H29        -7.4828   -0.0657   53.1623 H       1  ZINC001345966764    0.1100
     30 H30        -8.2232    0.7826   51.7838 H       1  ZINC001345966764    0.1100
     31 H31        -6.4113    2.5901   52.7790 H       1  ZINC001345966764    0.4200
     32 H32        -3.1295    0.2611   50.9284 H       1  ZINC001345966764    0.4200
     33 H33        -1.8176    2.8198   51.6225 H       1  ZINC001345966764    0.1000
     34 H34        -0.9746    1.2998   51.2385 H       1  ZINC001345966764    0.0900
     35 H35        -0.8439    4.3420   49.3053 H       1  ZINC001345966764    0.0900
     36 H36         0.2294    3.1394   50.0880 H       1  ZINC001345966764    0.0900
     37 H37        -0.0108    3.7398   47.2377 H       1  ZINC001345966764    0.1000
     38 H38         1.0625    2.5372   48.0205 H       1  ZINC001345966764    0.0900
@<TRIPOS>BOND
     1     1     2    1
     2     1    25    1
     3     1    26    1
     4     2     3    1
     5     2    27    1
     6     2    28    1
     7     3     4    1
     8     3     5    1
     9     3     6    1
    10     6     7    1
    11     6    29    1
    12     6    30    1
    13     7     8   am
    14     7    31    1
    15     8     9    2
    16     8    10    1
    17    10    11    2
    18    10    12   am
    19    12    13    1
    20    12    32    1
    21    13    14    1
    22    13    33    1
    23    13    34    1
    24    14    15    1
    25    14    24    1
    26    14    16    1
    27    16    17    1
    28    16    35    1
    29    16    36    1
    30    17    18    1
    31    17    37    1
    32    17    38    1
    33    18    19    1
    34    18    20    1
    35    18    24    1
    36    20    21    1
    37    20    22    1
    38    20    23    1
@<TRIPOS>SUBSTRUCTURE
     1 ZINC001345966764        1 TEMP              0 ****  ****    0 ROOT


##########                                Name:    ZINC001016082614
##########                DOCK_Rotatable_Bonds:                   6
##########                         Heavy_Atoms:                  25
##########                    Molecular_Weight:             348.402
##########                DOCK_Rotatable_Bonds:                   6
##########                       Formal_Charge:         -0.00999998
##########                     HBond_Acceptors:                   8
##########                        HBond_Donors:                   1
##########                         Heavy_Atoms:                  25
##########                          Grid_Score:          -28.186291
##########                     Grid_vdw_energy:          -27.760860
##########                      Grid_es_energy:           -0.425431
##########           Internal_energy_repulsive:           49.630276

@<TRIPOS>MOLECULE
ZINC001016082614
 49 51 1 0 0
SMALL
USER_CHARGES


@<TRIPOS>ATOM
      1 C1        -10.4375   -2.3247   52.5691 C.3     1  ZINC001016082614   -0.1700
      2 C2        -11.5804   -3.2761   52.9291 C.3     1  ZINC001016082614    0.1000
      3 N3        -12.4043   -2.6740   53.9802 N.am    1  ZINC001016082614   -0.6100
      4 C4        -13.3563   -1.7756   53.6587 C.2     1  ZINC001016082614    0.6100
      5 O5        -14.0406   -1.2756   54.5317 O.2     1  ZINC001016082614   -0.5100
      6 C6        -13.5673   -1.4007   52.2559 C.2     1  ZINC001016082614   -0.1100
      7 C7        -14.5924   -0.6514   51.7594 C.2     1  ZINC001016082614    0.0600
      8 N8        -14.4090   -0.5459   50.4393 N.2     1  ZINC001016082614   -0.4900
      9 C9        -13.3242   -1.1932   50.1077 C.2     1  ZINC001016082614    0.2000
     10 O10       -12.7790   -1.7268   51.2053 O.3     1  ZINC001016082614   -0.1900
     11 C11       -12.1935   -3.0483   55.3808 C.3     1  ZINC001016082614    0.1600
     12 H12       -11.3228   -3.7017   55.4359 H       1  ZINC001016082614    0.0800
     13 C13       -11.9012   -1.7831   56.1816 C.3     1  ZINC001016082614   -0.1300
     14 C14       -11.0776   -2.1383   57.3949 C.3     1  ZINC001016082614   -0.1300
     15 C15       -11.9989   -2.4198   58.5957 C.3     1  ZINC001016082614    0.1000
     16 N16       -13.1977   -3.1892   58.2087 N.am    1  ZINC001016082614   -0.6000
     17 C17       -14.3887   -2.8358   58.7311 C.2     1  ZINC001016082614    0.5000
     18 O18       -15.3895   -3.4511   58.4300 O.2     1  ZINC001016082614   -0.5200
     19 C19       -14.4769   -1.6761   59.6894 C.3     1  ZINC001016082614    0.1100
     20 H20       -13.9381   -0.8164   59.2909 H       1  ZINC001016082614    0.1100
     21 C21       -13.9025   -2.0757   61.0666 C.3     1  ZINC001016082614   -0.1200
     22 C22       -15.1738   -2.5353   61.8171 C.3     1  ZINC001016082614   -0.1600
     23 C23       -16.3002   -1.8023   61.1225 C.2     1  ZINC001016082614    0.5300
     24 O24       -17.4186   -1.6630   61.5704 O.2     1  ZINC001016082614   -0.5300
     25 N25       -15.8809   -1.3261   59.9352 N.am    1  ZINC001016082614   -0.7100
     26 C26       -13.1469   -4.3061   57.2921 C.3     1  ZINC001016082614    0.1300
     27 C27       -13.3704   -3.7981   55.8460 C.3     1  ZINC001016082614   -0.1600
     28 H28        -9.8245   -2.7726   51.7871 H       1  ZINC001016082614    0.0700
     29 H29       -10.8494   -1.3808   52.2120 H       1  ZINC001016082614    0.0500
     30 H30        -9.8245   -2.1428   53.4518 H       1  ZINC001016082614    0.0600
     31 H31       -12.1934   -3.4580   52.0463 H       1  ZINC001016082614    0.0900
     32 H32       -11.1685   -4.2200   53.2862 H       1  ZINC001016082614    0.0900
     33 H33       -15.4040   -0.2221   52.3281 H       1  ZINC001016082614    0.2000
     34 H34       -12.9281   -1.2798   49.1066 H       1  ZINC001016082614    0.2600
     35 H35       -11.3480   -1.0789   55.5601 H       1  ZINC001016082614    0.0700
     36 H36       -12.8396   -1.3288   56.4994 H       1  ZINC001016082614    0.0800
     37 H37       -10.4822   -3.0257   57.1804 H       1  ZINC001016082614    0.0700
     38 H38       -10.4128   -1.3088   57.6360 H       1  ZINC001016082614    0.0800
     39 H39       -11.4426   -2.9840   59.3442 H       1  ZINC001016082614    0.0700
     40 H40       -12.3127   -1.4710   59.0311 H       1  ZINC001016082614    0.0800
     41 H41       -13.1895   -2.8943   60.9692 H       1  ZINC001016082614    0.1000
     42 H42       -13.4453   -1.2191   61.5620 H       1  ZINC001016082614    0.1000
     43 H43       -15.3042   -3.6133   61.7219 H       1  ZINC001016082614    0.1100
     44 H44       -15.1218   -2.2476   62.8672 H       1  ZINC001016082614    0.1100
     45 H45       -16.4354   -0.8180   59.3226 H       1  ZINC001016082614    0.4200
     46 H46       -12.1724   -4.7893   57.3624 H       1  ZINC001016082614    0.0800
     47 H47       -13.9265   -5.0229   57.5499 H       1  ZINC001016082614    0.0900
     48 H48       -14.2470   -3.1508   55.8225 H       1  ZINC001016082614    0.0900
     49 H49       -13.5359   -4.6496   55.1861 H       1  ZINC001016082614    0.0700
@<TRIPOS>BOND
     1     1     2    1
     2     1    28    1
     3     1    29    1
     4     1    30    1
     5     2     3    1
     6     2    31    1
     7     2    32    1
     8     3     4   am
     9     3    11    1
    10     4     5    2
    11     4     6    1
    12     6    10    1
    13     6     7    2
    14     7     8    1
    15     7    33    1
    16     8     9    2
    17     9    10    1
    18     9    34    1
    19    11    12    1
    20    11    27    1
    21    11    13    1
    22    13    14    1
    23    13    35    1
    24    13    36    1
    25    14    15    1
    26    14    37    1
    27    14    38    1
    28    15    16    1
    29    15    39    1
    30    15    40    1
    31    16    17   am
    32    16    26    1
    33    17    18    2
    34    17    19    1
    35    19    20    1
    36    19    25    1
    37    19    21    1
    38    21    22    1
    39    21    41    1
    40    21    42    1
    41    22    23    1
    42    22    43    1
    43    22    44    1
    44    23    24    2
    45    23    25   am
    46    25    45    1
    47    26    27    1
    48    26    46    1
    49    26    47    1
    50    27    48    1
    51    27    49    1
@<TRIPOS>SUBSTRUCTURE
     1 ZINC001016082614        1 TEMP              0 ****  ****    0 ROOT


##########                                Name:    ZINC000541568816
##########                DOCK_Rotatable_Bonds:                   8
##########                         Heavy_Atoms:                  25
##########                    Molecular_Weight:             411.339
##########                DOCK_Rotatable_Bonds:                   8
##########                       Formal_Charge:          -0.0100007
##########                     HBond_Acceptors:                   5
##########                        HBond_Donors:                   1
##########                         Heavy_Atoms:                  25
##########                          Grid_Score:          -28.154776
##########                     Grid_vdw_energy:          -28.272516
##########                      Grid_es_energy:            0.117742
##########           Internal_energy_repulsive:           17.464048

@<TRIPOS>MOLECULE
ZINC000541568816
 52 54 1 0 0
SMALL
USER_CHARGES


@<TRIPOS>ATOM
      1 C1        -15.9253   -3.1467   59.7840 C.3     1  ZINC000541568816   -0.1500
      2 C2        -15.0214   -2.5351   58.7117 C.3     1  ZINC000541568816    0.0600
      3 O3        -14.8849   -3.4520   57.6242 O.3     1  ZINC000541568816   -0.3700
      4 C4        -14.1671   -2.9252   56.5065 C.3     1  ZINC000541568816    0.0700
      5 H5        -14.2667   -1.8441   56.4105 H       1  ZINC000541568816    0.0900
      6 C6        -14.4226   -3.6874   55.1942 C.3     1  ZINC000541568816   -0.1700
      7 C7        -12.9197   -3.5342   54.9014 C.3     1  ZINC000541568816    0.1500
      8 H8        -12.4662   -4.4247   54.4660 H       1  ZINC000541568816    0.1100
      9 N9        -12.5854   -2.3095   54.1702 N.am    1  ZINC000541568816   -0.7200
     10 C10       -12.8819   -2.2050   52.8596 C.2     1  ZINC000541568816    0.7100
     11 O11       -13.4281   -3.1265   52.2845 O.2     1  ZINC000541568816   -0.5800
     12 N12       -12.5730   -1.0789   52.1865 N.am    1  ZINC000541568816   -0.6300
     13 C13       -12.8936   -0.9659   50.7615 C.3     1  ZINC000541568816    0.1000
     14 C14       -14.3092   -0.4081   50.6000 C.3     1  ZINC000541568816   -0.1800
     15 C15       -11.9165    0.0322   52.8800 C.3     1  ZINC000541568816    0.1700
     16 C16       -10.4263   -0.0584   52.6754 C.ar    1  ZINC000541568816   -0.0700
     17 C17        -9.8413   -1.2762   52.3847 C.ar    1  ZINC000541568816   -0.1000
     18 C18        -8.4740   -1.3594   52.1970 C.ar    1  ZINC000541568816   -0.1000
     19 C19        -7.6916   -0.2246   52.2996 C.ar    1  ZINC000541568816   -0.1200
     20 C20        -8.2758    0.9941   52.5904 C.ar    1  ZINC000541568816   -0.0900
     21 C21        -9.6442    1.0786   52.7731 C.ar    1  ZINC000541568816   -0.0900
     22 Br22      -10.4440    2.7454   53.1708 Br      1  ZINC000541568816   -0.0500
     23 C23       -12.7197   -3.4192   56.4178 C.3     1  ZINC000541568816    0.0800
     24 C24       -12.4547   -4.7559   57.1321 C.3     1  ZINC000541568816   -0.1200
     25 C25       -10.9566   -4.6229   57.5243 C.3     1  ZINC000541568816   -0.1600
     26 C26       -10.8568   -3.1010   57.8010 C.3     1  ZINC000541568816    0.0500
     27 O27       -11.7257   -2.4851   56.8342 O.3     1  ZINC000541568816   -0.3600
     28 H28       -16.9069   -3.3531   59.3574 H       1  ZINC000541568816    0.0600
     29 H29       -15.4835   -4.0754   60.1451 H       1  ZINC000541568816    0.0600
     30 H30       -16.0295   -2.4473   60.6136 H       1  ZINC000541568816    0.0700
     31 H31       -15.4633   -1.6063   58.3507 H       1  ZINC000541568816    0.0500
     32 H32       -14.0399   -2.3287   59.1383 H       1  ZINC000541568816    0.0500
     33 H33       -14.7350   -4.7210   55.3436 H       1  ZINC000541568816    0.1000
     34 H34       -15.0608   -3.1486   54.4938 H       1  ZINC000541568816    0.0800
     35 H35       -12.1508   -1.5739   54.6293 H       1  ZINC000541568816    0.4000
     36 H36       -12.1817   -0.2949   50.2810 H       1  ZINC000541568816    0.0900
     37 H37       -12.8358   -1.9503   50.2970 H       1  ZINC000541568816    0.0700
     38 H38       -14.3671    0.5762   51.0646 H       1  ZINC000541568816    0.0600
     39 H39       -14.5478   -0.3241   49.5397 H       1  ZINC000541568816    0.0700
     40 H40       -15.0212   -1.0791   51.0806 H       1  ZINC000541568816    0.0600
     41 H41       -12.2816    0.9775   52.4785 H       1  ZINC000541568816    0.1000
     42 H42       -12.1410   -0.0211   53.9453 H       1  ZINC000541568816    0.1100
     43 H43       -10.4522   -2.1632   52.3045 H       1  ZINC000541568816    0.1300
     44 H44        -8.0170   -2.3115   51.9706 H       1  ZINC000541568816    0.1300
     45 H45        -6.6236   -0.2900   52.1529 H       1  ZINC000541568816    0.1300
     46 H46        -7.6644    1.8807   52.6709 H       1  ZINC000541568816    0.1300
     47 H47       -13.0816   -4.8545   58.0182 H       1  ZINC000541568816    0.1000
     48 H48       -12.6064   -5.5959   56.4543 H       1  ZINC000541568816    0.0900
     49 H49       -10.7327   -5.2006   58.4210 H       1  ZINC000541568816    0.0900
     50 H50       -10.3073   -4.9152   56.6990 H       1  ZINC000541568816    0.0800
     51 H51       -11.1973   -2.8774   58.8120 H       1  ZINC000541568816    0.0600
     52 H52        -9.8318   -2.7575   57.6615 H       1  ZINC000541568816    0.0900
@<TRIPOS>BOND
     1     1     2    1
     2     1    28    1
     3     1    29    1
     4     1    30    1
     5     2     3    1
     6     2    31    1
     7     2    32    1
     8     3     4    1
     9     4     5    1
    10     4    23    1
    11     4     6    1
    12     6     7    1
    13     6    33    1
    14     6    34    1
    15     7     8    1
    16     7     9    1
    17     7    23    1
    18     9    10   am
    19     9    35    1
    20    10    11    2
    21    10    12   am
    22    12    13    1
    23    12    15    1
    24    13    14    1
    25    13    36    1
    26    13    37    1
    27    14    38    1
    28    14    39    1
    29    14    40    1
    30    15    16    1
    31    15    41    1
    32    15    42    1
    33    16    21   ar
    34    16    17   ar
    35    17    18   ar
    36    17    43    1
    37    18    19   ar
    38    18    44    1
    39    19    20   ar
    40    19    45    1
    41    20    21   ar
    42    20    46    1
    43    21    22    1
    44    23    27    1
    45    23    24    1
    46    24    25    1
    47    24    47    1
    48    24    48    1
    49    25    26    1
    50    25    49    1
    51    25    50    1
    52    26    27    1
    53    26    51    1
    54    26    52    1
@<TRIPOS>SUBSTRUCTURE
     1 ZINC000541568816        1 TEMP              0 ****  ****    0 ROOT


##########                                Name:    ZINC000611836474
##########                DOCK_Rotatable_Bonds:                   7
##########                         Heavy_Atoms:                  22
##########                    Molecular_Weight:             366.258
##########                DOCK_Rotatable_Bonds:                   7
##########                       Formal_Charge:          -0.0300004
##########                     HBond_Acceptors:                   5
##########                        HBond_Donors:                   1
##########                         Heavy_Atoms:                  22
##########                          Grid_Score:          -28.133930
##########                     Grid_vdw_energy:          -27.875000
##########                      Grid_es_energy:           -0.258929
##########           Internal_energy_repulsive:            6.491065

@<TRIPOS>MOLECULE
ZINC000611836474
 42 43 1 0 0
SMALL
USER_CHARGES


@<TRIPOS>ATOM
      1 C1         -7.2466    0.7953   52.7810 C.3     1  ZINC000611836474   -0.1500
      2 C2         -8.0918   -0.4670   52.5984 C.3     1  ZINC000611836474   -0.1400
      3 C3         -9.3811   -0.3396   53.4122 C.3     1  ZINC000611836474    0.1300
      4 N4        -10.1870   -1.5513   53.2432 N.pl3   1  ZINC000611836474   -0.3900
      5 N5        -10.2170   -2.3694   52.1066 N.2     1  ZINC000611836474   -0.2900
      6 C6        -11.0509   -3.3529   52.3283 C.2     1  ZINC000611836474    0.0600
      7 C7        -11.5819   -3.1980   53.6117 C.2     1  ZINC000611836474   -0.2800
      8 C8        -11.0293   -2.0811   54.1593 C.2     1  ZINC000611836474    0.3000
      9 N9        -11.2904   -1.5711   55.4309 N.am    1  ZINC000611836474   -0.6500
     10 C10       -11.1255   -2.3519   56.5171 C.2     1  ZINC000611836474    0.5200
     11 O11       -10.7486   -3.4976   56.3889 O.2     1  ZINC000611836474   -0.4700
     12 C12       -11.4093   -1.8013   57.8909 C.3     1  ZINC000611836474    0.0700
     13 H13       -12.1283   -0.9857   57.8140 H       1  ZINC000611836474    0.1100
     14 C14       -10.1109   -1.2799   58.5097 C.3     1  ZINC000611836474   -0.1800
     15 O15       -11.9487   -2.8355   58.7165 O.3     1  ZINC000611836474   -0.2700
     16 C16       -13.1412   -2.5855   59.3186 C.ar    1  ZINC000611836474    0.1500
     17 C17       -13.2014   -1.7408   60.4167 C.ar    1  ZINC000611836474   -0.2000
     18 C18       -14.4150   -1.4882   61.0274 C.ar    1  ZINC000611836474   -0.0600
     19 C19       -15.5689   -2.0771   60.5451 C.ar    1  ZINC000611836474   -0.1100
     20 C20       -16.8908   -1.8000   61.2136 C.3     1  ZINC000611836474   -0.1100
     21 C21       -15.5125   -2.9195   59.4500 C.ar    1  ZINC000611836474   -0.0500
     22 C22       -14.3022   -3.1710   58.8319 C.ar    1  ZINC000611836474   -0.1200
     23 Br23      -14.2254   -4.3231   57.3345 Br      1  ZINC000611836474   -0.0300
     24 H24        -6.3281    0.7045   52.2013 H       1  ZINC000611836474    0.0600
     25 H25        -7.8096    1.6626   52.4364 H       1  ZINC000611836474    0.0600
     26 H26        -6.9999    0.9178   53.8357 H       1  ZINC000611836474    0.0600
     27 H27        -8.3384   -0.5895   51.5438 H       1  ZINC000611836474    0.0800
     28 H28        -7.5288   -1.3343   52.9430 H       1  ZINC000611836474    0.0600
     29 H29        -9.1344   -0.2114   54.4662 H       1  ZINC000611836474    0.0800
     30 H30        -9.9468    0.5246   53.0637 H       1  ZINC000611836474    0.1000
     31 H31       -11.2887   -4.1482   51.6374 H       1  ZINC000611836474    0.1900
     32 H32       -12.3001   -3.8503   54.0860 H       1  ZINC000611836474    0.1700
     33 H33       -11.5905   -0.6544   55.5336 H       1  ZINC000611836474    0.4100
     34 H34        -9.6995   -0.4909   57.8800 H       1  ZINC000611836474    0.0800
     35 H35       -10.3163   -0.8816   59.5033 H       1  ZINC000611836474    0.0800
     36 H36        -9.3919   -2.0954   58.5866 H       1  ZINC000611836474    0.0800
     37 H37       -12.3001   -1.2809   60.7947 H       1  ZINC000611836474    0.1400
     38 H38       -14.4619   -0.8304   61.8826 H       1  ZINC000611836474    0.1300
     39 H39       -17.3575   -0.9310   60.7496 H       1  ZINC000611836474    0.0700
     40 H40       -17.5432   -2.6659   61.1016 H       1  ZINC000611836474    0.0700
     41 H41       -16.7278   -1.6024   62.2731 H       1  ZINC000611836474    0.0700
     42 H42       -16.4155   -3.3784   59.0750 H       1  ZINC000611836474    0.1400
@<TRIPOS>BOND
     1     1     2    1
     2     1    24    1
     3     1    25    1
     4     1    26    1
     5     2     3    1
     6     2    27    1
     7     2    28    1
     8     3     4    1
     9     3    29    1
    10     3    30    1
    11     4     8    1
    12     4     5    1
    13     5     6    2
    14     6     7    1
    15     6    31    1
    16     7     8    2
    17     7    32    1
    18     8     9    1
    19     9    10   am
    20     9    33    1
    21    10    11    2
    22    10    12    1
    23    12    13    1
    24    12    14    1
    25    12    15    1
    26    14    34    1
    27    14    35    1
    28    14    36    1
    29    15    16    1
    30    16    22   ar
    31    16    17   ar
    32    17    18   ar
    33    17    37    1
    34    18    19   ar
    35    18    38    1
    36    19    20    1
    37    19    21   ar
    38    20    39    1
    39    20    40    1
    40    20    41    1
    41    21    22   ar
    42    21    42    1
    43    22    23    1
@<TRIPOS>SUBSTRUCTURE
     1 ZINC000611836474        1 TEMP              0 ****  ****    0 ROOT


##########                                Name:    ZINC000478980774
##########                DOCK_Rotatable_Bonds:                   4
##########                         Heavy_Atoms:                  26
##########                    Molecular_Weight:             401.818
##########                DOCK_Rotatable_Bonds:                   4
##########                       Formal_Charge:          -0.0100001
##########                     HBond_Acceptors:                   9
##########                        HBond_Donors:                   1
##########                         Heavy_Atoms:                  26
##########                          Grid_Score:          -28.116495
##########                     Grid_vdw_energy:          -22.436169
##########                      Grid_es_energy:           -5.680327
##########           Internal_energy_repulsive:            7.830134

@<TRIPOS>MOLECULE
ZINC000478980774
 40 42 1 0 0
SMALL
USER_CHARGES


@<TRIPOS>ATOM
      1 C1         -6.5073    5.5866   53.9592 C.3     1  ZINC000478980774   -0.1400
      2 C2         -6.4734    4.2736   54.7439 C.3     1  ZINC000478980774   -0.4600
      3 H3         -6.9331    4.4222   55.7210 H       1  ZINC000478980774    0.1500
      4 C4         -7.2341    3.2160   53.9866 C.2     1  ZINC000478980774    0.5400
      5 O5         -8.0677    3.5385   53.1666 O.2     1  ZINC000478980774   -0.5000
      6 N6         -6.9884    1.9116   54.2204 N.am    1  ZINC000478980774   -0.6600
      7 C7         -7.6956    0.9283   53.5164 C.ar    1  ZINC000478980774    0.1600
      8 C8         -7.1280    0.3307   52.3995 C.ar    1  ZINC000478980774   -0.1200
      9 C9         -7.8248   -0.6392   51.7036 C.ar    1  ZINC000478980774   -0.0600
     10 C10        -9.0909   -1.0176   52.1183 C.ar    1  ZINC000478980774    0.0100
     11 O11        -9.9717   -1.9323   51.6148 O.3     1  ZINC000478980774   -0.2900
     12 C12       -10.9154   -2.1802   52.6736 C.3     1  ZINC000478980774    0.5700
     13 F13       -12.1908   -2.4173   52.1497 F       1  ZINC000478980774   -0.1100
     14 F14       -10.4998   -3.2603   53.4596 F       1  ZINC000478980774   -0.1500
     15 O15       -10.9012   -0.9598   53.4374 O.3     1  ZINC000478980774   -0.2800
     16 C16        -9.6632   -0.4198   53.2393 C.ar    1  ZINC000478980774    0.0500
     17 C17        -8.9622    0.5474   53.9391 C.ar    1  ZINC000478980774   -0.0900
     18 S18        -4.7523    3.7424   54.9599 S.o     1  ZINC000478980774    1.3000
     19 O19        -4.1627    3.5176   53.6868 O.2     1  ZINC000478980774   -0.7800
     20 C20        -3.9753    5.1841   55.7400 C.3     1  ZINC000478980774   -0.4300
     21 C21        -2.5171    4.8956   55.9886 C.ar    1  ZINC000478980774   -0.0600
     22 C22        -2.0884    3.5920   56.1509 C.ar    1  ZINC000478980774   -0.1100
     23 C23        -0.7507    3.3271   56.3790 C.ar    1  ZINC000478980774   -0.1100
     24 C24         0.1585    4.3661   56.4454 C.ar    1  ZINC000478980774   -0.1100
     25 C25        -0.2692    5.6706   56.2832 C.ar    1  ZINC000478980774   -0.1100
     26 C26        -1.6064    5.9357   56.0488 C.ar    1  ZINC000478980774   -0.0300
     27 Cl27       -2.1443    7.5737   55.8450 Cl      1  ZINC000478980774   -0.0600
     28 H28        -5.9570    6.3515   54.5071 H       1  ZINC000478980774    0.0800
     29 H29        -6.0476    5.4379   52.9822 H       1  ZINC000478980774    0.0700
     30 H30        -7.5413    5.9057   53.8294 H       1  ZINC000478980774    0.0700
     31 H31        -6.3219    1.6536   54.8762 H       1  ZINC000478980774    0.4200
     32 H32        -6.1410    0.6243   52.0737 H       1  ZINC000478980774    0.1500
     33 H33        -7.3812   -1.1024   50.8347 H       1  ZINC000478980774    0.1500
     34 H34        -9.4019    1.0084   54.8111 H       1  ZINC000478980774    0.1600
     35 H35        -4.0677    6.0476   55.0813 H       1  ZINC000478980774    0.1100
     36 H36        -4.4705    5.3954   56.6877 H       1  ZINC000478980774    0.1300
     37 H37        -2.7985    2.7798   56.0999 H       1  ZINC000478980774    0.1400
     38 H38        -0.4161    2.3081   56.5059 H       1  ZINC000478980774    0.1300
     39 H39         1.2032    4.1587   56.6243 H       1  ZINC000478980774    0.1300
     40 H40         0.4414    6.4823   56.3350 H       1  ZINC000478980774    0.1300
@<TRIPOS>BOND
     1     1     2    1
     2     1    28    1
     3     1    29    1
     4     1    30    1
     5     2     3    1
     6     2     4    1
     7     2    18    1
     8     4     5    2
     9     4     6   am
    10     6     7    1
    11     6    31    1
    12     7    17   ar
    13     7     8   ar
    14     8     9   ar
    15     8    32    1
    16     9    10   ar
    17     9    33    1
    18    10    16   ar
    19    10    11    1
    20    11    12    1
    21    12    13    1
    22    12    14    1
    23    12    15    1
    24    15    16    1
    25    16    17   ar
    26    17    34    1
    27    18    19    2
    28    18    20    1
    29    20    21    1
    30    20    35    1
    31    20    36    1
    32    21    26   ar
    33    21    22   ar
    34    22    23   ar
    35    22    37    1
    36    23    24   ar
    37    23    38    1
    38    24    25   ar
    39    24    39    1
    40    25    26   ar
    41    25    40    1
    42    26    27    1
@<TRIPOS>SUBSTRUCTURE
     1 ZINC000478980774        1 TEMP              0 ****  ****    0 ROOT


##########                                Name:    ZINC000279593480
##########                DOCK_Rotatable_Bonds:                   9
##########                         Heavy_Atoms:                  23
##########                    Molecular_Weight:              340.85
##########                DOCK_Rotatable_Bonds:                   9
##########                       Formal_Charge:          -0.0500002
##########                     HBond_Acceptors:                   6
##########                        HBond_Donors:                   3
##########                         Heavy_Atoms:                  23
##########                          Grid_Score:          -28.055086
##########                     Grid_vdw_energy:          -27.851242
##########                      Grid_es_energy:           -0.203843
##########           Internal_energy_repulsive:           12.362450

@<TRIPOS>MOLECULE
ZINC000279593480
 48 49 1 0 0
SMALL
USER_CHARGES


@<TRIPOS>ATOM
      1 C1         -5.4956    2.8338   52.6063 C.3     1  ZINC000279593480   -0.1400
      2 C2         -4.6534    3.9849   53.1601 C.3     1  ZINC000279593480   -0.1400
      3 C3         -3.1730    3.6010   53.1158 C.3     1  ZINC000279593480    0.1700
      4 H4         -3.0477    2.5910   53.5060 H       1  ZINC000279593480    0.0900
      5 C5         -2.3662    4.5813   53.9696 C.3     1  ZINC000279593480   -0.0900
      6 C6         -1.6805    3.8316   55.0827 C.ar    1  ZINC000279593480   -0.0800
      7 C7         -0.3537    4.0885   55.3738 C.ar    1  ZINC000279593480   -0.1000
      8 C8          0.2757    3.4013   56.3946 C.ar    1  ZINC000279593480   -0.1100
      9 C9         -0.4224    2.4561   57.1250 C.ar    1  ZINC000279593480   -0.0400
     10 Cl10        0.3673    1.5929   58.4076 Cl      1  ZINC000279593480   -0.0700
     11 C11        -1.7502    2.1995   56.8331 C.ar    1  ZINC000279593480   -0.1100
     12 C12        -2.3802    2.8914   55.8159 C.ar    1  ZINC000279593480   -0.1000
     13 N13        -2.6964    3.6524   51.7315 N.am    1  ZINC000279593480   -0.7400
     14 C14        -1.9908    2.6227   51.2230 C.2     1  ZINC000279593480    0.7100
     15 O15        -1.7512    1.6506   51.9130 O.2     1  ZINC000279593480   -0.5800
     16 N16        -1.5510    2.6706   49.9500 N.am    1  ZINC000279593480   -0.7500
     17 C17        -0.7855    1.5506   49.3969 C.3     1  ZINC000279593480    0.1200
     18 C18        -0.7268    1.6761   47.8731 C.3     1  ZINC000279593480    0.0900
     19 O19        -2.0455    1.7017   47.3229 O.3     1  ZINC000279593480   -0.5400
     20 C20         0.0584    2.9424   47.4641 C.3     1  ZINC000279593480   -0.1900
     21 C21         1.2575    2.3964   46.6577 C.3     1  ZINC000279593480    0.0500
     22 O22         0.8186    1.1101   46.1692 O.3     1  ZINC000279593480   -0.3600
     23 C23         0.0908    0.5148   47.2655 C.3     1  ZINC000279593480    0.0900
     24 H24         0.7822    0.1101   48.0046 H       1  ZINC000279593480    0.0800
     25 C25        -0.8414   -0.5842   46.7516 C.3     1  ZINC000279593480   -0.1400
     26 H26        -5.3334    1.9414   53.2108 H       1  ZINC000279593480    0.0600
     27 H27        -6.5502    3.1074   52.6378 H       1  ZINC000279593480    0.0400
     28 H28        -5.2031    2.6327   51.5757 H       1  ZINC000279593480    0.0600
     29 H29        -4.8155    4.8774   52.5556 H       1  ZINC000279593480    0.0600
     30 H30        -4.9459    4.1861   54.1907 H       1  ZINC000279593480    0.0700
     31 H31        -1.6180    5.0737   53.3484 H       1  ZINC000279593480    0.0800
     32 H32        -3.0355    5.3296   54.3940 H       1  ZINC000279593480    0.0900
     33 H33         0.1911    4.8261   54.8033 H       1  ZINC000279593480    0.1300
     34 H34         1.3123    3.6018   56.6217 H       1  ZINC000279593480    0.1300
     35 H35        -2.2956    1.4616   57.4027 H       1  ZINC000279593480    0.1300
     36 H36        -3.4168    2.6914   55.5882 H       1  ZINC000279593480    0.1300
     37 H37        -2.8886    4.4274   51.1808 H       1  ZINC000279593480    0.3900
     38 H38        -1.7411    3.4466   49.4000 H       1  ZINC000279593480    0.3900
     39 H39         0.2262    1.5667   49.8020 H       1  ZINC000279593480    0.0800
     40 H40        -1.2697    0.6117   49.6657 H       1  ZINC000279593480    0.0800
     41 H41        -2.0756    1.9332   46.3846 H       1  ZINC000279593480    0.3700
     42 H42        -0.5584    3.5894   46.8405 H       1  ZINC000279593480    0.0900
     43 H43         0.4047    3.4790   48.3474 H       1  ZINC000279593480    0.0900
     44 H44         1.4882    3.0601   45.8245 H       1  ZINC000279593480    0.1000
     45 H45         2.1278    2.2802   47.3036 H       1  ZINC000279593480    0.0600
     46 H46        -0.2516   -1.3686   46.2774 H       1  ZINC000279593480    0.0600
     47 H47        -1.4016   -1.0052   47.5864 H       1  ZINC000279593480    0.0700
     48 H48        -1.5352   -0.1617   46.0247 H       1  ZINC000279593480    0.0700
@<TRIPOS>BOND
     1     1     2    1
     2     1    26    1
     3     1    27    1
     4     1    28    1
     5     2     3    1
     6     2    29    1
     7     2    30    1
     8     3     4    1
     9     3     5    1
    10     3    13    1
    11     5     6    1
    12     5    31    1
    13     5    32    1
    14     6    12   ar
    15     6     7   ar
    16     7     8   ar
    17     7    33    1
    18     8     9   ar
    19     8    34    1
    20     9    10    1
    21     9    11   ar
    22    11    12   ar
    23    11    35    1
    24    12    36    1
    25    13    14   am
    26    13    37    1
    27    14    15    2
    28    14    16   am
    29    16    17    1
    30    16    38    1
    31    17    18    1
    32    17    39    1
    33    17    40    1
    34    18    23    1
    35    18    19    1
    36    18    20    1
    37    19    41    1
    38    20    21    1
    39    20    42    1
    40    20    43    1
    41    21    22    1
    42    21    44    1
    43    21    45    1
    44    22    23    1
    45    23    24    1
    46    23    25    1
    47    25    46    1
    48    25    47    1
    49    25    48    1
@<TRIPOS>SUBSTRUCTURE
     1 ZINC000279593480        1 TEMP              0 ****  ****    0 ROOT


##########                                Name:    ZINC000302023461
##########                DOCK_Rotatable_Bonds:                   3
##########                         Heavy_Atoms:                  25
##########                    Molecular_Weight:             356.362
##########                DOCK_Rotatable_Bonds:                   3
##########                       Formal_Charge:        -2.08616e-07
##########                     HBond_Acceptors:                   9
##########                        HBond_Donors:                   1
##########                         Heavy_Atoms:                  25
##########                          Grid_Score:          -28.039877
##########                     Grid_vdw_energy:          -26.731491
##########                      Grid_es_energy:           -1.308387
##########           Internal_energy_repulsive:           19.352880

@<TRIPOS>MOLECULE
ZINC000302023461
 37 40 1 0 0
SMALL
USER_CHARGES


@<TRIPOS>ATOM
      1 O1          2.6028    0.4532   45.7392 O.2     1  ZINC000302023461   -0.1600
      2 N2          1.5554    0.7148   46.3032 N.pl3   1  ZINC000302023461    0.0200
      3 O3          0.8291   -0.1847   46.6866 O.2     1  ZINC000302023461   -0.1300
      4 C4          1.1682    2.1257   46.5280 C.ar    1  ZINC000302023461    0.0000
      5 C5          1.9908    3.1459   46.0938 C.ar    1  ZINC000302023461   -0.0600
      6 C6          1.6297    4.4646   46.3035 C.ar    1  ZINC000302023461   -0.0900
      7 C7          0.4440    4.7662   46.9481 C.ar    1  ZINC000302023461   -0.0800
      8 C8         -0.3839    3.7509   47.3851 C.ar    1  ZINC000302023461   -0.0500
      9 C9         -0.0269    2.4251   47.1716 C.ar    1  ZINC000302023461   -0.1100
     10 S10        -1.0802    1.1265   47.7270 S.3     1  ZINC000302023461    0.1900
     11 C11        -1.2099    1.4337   49.4570 C.2     1  ZINC000302023461    0.2100
     12 N12        -0.2380    1.2998   50.3300 N.2     1  ZINC000302023461   -0.3200
     13 N13        -0.7650    1.6433   51.5855 N.pl3   1  ZINC000302023461   -0.4700
     14 C14        -2.0603    1.9717   51.3787 C.2     1  ZINC000302023461    0.3500
     15 C15        -3.0243    2.4032   52.4138 C.ar    1  ZINC000302023461   -0.0400
     16 C16        -2.5655    2.9499   53.6126 C.ar    1  ZINC000302023461   -0.0900
     17 C17        -3.4666    3.3498   54.5768 C.ar    1  ZINC000302023461   -0.1100
     18 C18        -4.8310    3.2107   54.3602 C.ar    1  ZINC000302023461    0.0800
     19 O19        -5.7017    3.6042   55.3291 O.3     1  ZINC000302023461   -0.3000
     20 C20        -7.0637    3.7959   54.9319 C.3     1  ZINC000302023461    0.0200
     21 C21        -7.4893    2.5941   54.0778 C.3     1  ZINC000302023461    0.0200
     22 O22        -6.6296    2.5299   52.9348 O.3     1  ZINC000302023461   -0.3000
     23 C23        -5.2950    2.6689   53.1648 C.ar    1  ZINC000302023461    0.0500
     24 C24        -4.3955    2.2700   52.1919 C.ar    1  ZINC000302023461   -0.0500
     25 N25        -2.3102    1.8455   50.0904 N.2     1  ZINC000302023461   -0.5000
     26 H26         2.9175    2.9139   45.5900 H       1  ZINC000302023461    0.1600
     27 H27         2.2755    5.2606   45.9633 H       1  ZINC000302023461    0.1500
     28 H28         0.1652    5.7969   47.1101 H       1  ZINC000302023461    0.1500
     29 H29        -1.3094    3.9871   47.8891 H       1  ZINC000302023461    0.1600
     30 H30        -0.2933    1.6444   52.4331 H       1  ZINC000302023461    0.4400
     31 H31        -1.5051    3.0595   53.7855 H       1  ZINC000302023461    0.1300
     32 H32        -3.1095    3.7728   55.5043 H       1  ZINC000302023461    0.1500
     33 H33        -7.6984    3.8620   55.8156 H       1  ZINC000302023461    0.1300
     34 H34        -7.1506    4.7117   54.3471 H       1  ZINC000302023461    0.0800
     35 H35        -7.3957    1.6775   54.6602 H       1  ZINC000302023461    0.0800
     36 H36        -8.5225    2.7207   53.7540 H       1  ZINC000302023461    0.1300
     37 H37        -4.7545    1.8518   51.2631 H       1  ZINC000302023461    0.1600
@<TRIPOS>BOND
     1     1     2    2
     2     2     3    2
     3     2     4    1
     4     4     9   ar
     5     4     5   ar
     6     5     6   ar
     7     5    26    1
     8     6     7   ar
     9     6    27    1
    10     7     8   ar
    11     7    28    1
    12     8     9   ar
    13     8    29    1
    14     9    10    1
    15    10    11    1
    16    11    25    1
    17    11    12    2
    18    12    13    1
    19    13    14    1
    20    13    30    1
    21    14    15    1
    22    14    25    2
    23    15    24   ar
    24    15    16   ar
    25    16    17   ar
    26    16    31    1
    27    17    18   ar
    28    17    32    1
    29    18    23   ar
    30    18    19    1
    31    19    20    1
    32    20    21    1
    33    20    33    1
    34    20    34    1
    35    21    22    1
    36    21    35    1
    37    21    36    1
    38    22    23    1
    39    23    24   ar
    40    24    37    1
@<TRIPOS>SUBSTRUCTURE
     1 ZINC000302023461        1 TEMP              0 ****  ****    0 ROOT


##########                                Name:    ZINC000187810810
##########                DOCK_Rotatable_Bonds:                   7
##########                         Heavy_Atoms:                  27
##########                    Molecular_Weight:             386.414
##########                DOCK_Rotatable_Bonds:                   7
##########                       Formal_Charge:           0.0599998
##########                     HBond_Acceptors:                   8
##########                        HBond_Donors:                   1
##########                         Heavy_Atoms:                  27
##########                          Grid_Score:          -28.017944
##########                     Grid_vdw_energy:          -25.791512
##########                      Grid_es_energy:           -2.226434
##########           Internal_energy_repulsive:           40.007713

@<TRIPOS>MOLECULE
ZINC000187810810
 52 53 1 0 0
SMALL
USER_CHARGES


@<TRIPOS>ATOM
      1 C1          0.9091    2.1252   48.0025 C.3     1  ZINC000187810810   -0.1800
      2 C2          0.1145    3.1699   47.2161 C.3     1  ZINC000187810810    0.1400
      3 C3          0.9667    4.4273   47.0330 C.3     1  ZINC000187810810   -0.1800
      4 C4         -0.2575    2.6018   45.8451 C.3     1  ZINC000187810810   -0.1400
      5 O5         -1.0953    3.5070   47.9448 O.3     1  ZINC000187810810   -0.3600
      6 C6         -1.6037    2.5609   48.7566 C.2     1  ZINC000187810810    0.6500
      7 O7         -2.0691    1.5421   48.2852 O.2     1  ZINC000187810810   -0.5600
      8 N8         -1.5965    2.7435   50.0918 N.am    1  ZINC000187810810   -0.6000
      9 C9         -2.1406    1.7166   50.9908 C.3     1  ZINC000187810810    0.1100
     10 C10        -3.1809    2.3660   51.9089 C.3     1  ZINC000187810810   -0.1400
     11 C11        -2.5468    3.5589   52.6280 C.3     1  ZINC000187810810    0.1800
     12 C12        -3.5729    4.1891   53.5720 C.3     1  ZINC000187810810   -0.1600
     13 N13        -1.3882    3.1037   53.4003 N.am    1  ZINC000187810810   -0.7100
     14 C14        -0.6418    3.9939   54.0836 C.2     1  ZINC000187810810    0.5500
     15 O15        -0.9291    5.1747   54.0579 O.2     1  ZINC000187810810   -0.5100
     16 C16         0.5265    3.5343   54.8644 C.ar    1  ZINC000187810810   -0.0900
     17 C17         1.7866    3.4693   54.2679 C.ar    1  ZINC000187810810   -0.0900
     18 C18         2.8728    3.0398   55.0024 C.ar    1  ZINC000187810810   -0.0900
     19 C19         2.7149    2.6737   56.3271 C.ar    1  ZINC000187810810   -0.0900
     20 C20         1.4681    2.7353   56.9244 C.ar    1  ZINC000187810810   -0.0800
     21 C21         0.3751    3.1688   56.2032 C.ar    1  ZINC000187810810   -0.1300
     22 C22        -0.9818    3.2357   56.8554 C.3     1  ZINC000187810810    0.5200
     23 F23        -1.4261    4.5623   56.8724 F       1  ZINC000187810810   -0.1800
     24 F24        -1.8861    2.4504   56.1322 F       1  ZINC000187810810   -0.1600
     25 F25        -0.8931    2.7568   58.1668 F       1  ZINC000187810810   -0.1600
     26 C26        -2.0965    4.5973   51.5978 C.3     1  ZINC000187810810   -0.1500
     27 C27        -1.0389    3.9707   50.6765 C.3     1  ZINC000187810810    0.1300
     28 H28         1.1742    2.5299   48.9792 H       1  ZINC000187810810    0.0900
     29 H29         0.3019    1.2295   48.1329 H       1  ZINC000187810810    0.0600
     30 H30         1.8173    1.8721   47.4554 H       1  ZINC000187810810    0.0700
     31 H31         1.8749    4.1741   46.4860 H       1  ZINC000187810810    0.0700
     32 H32         0.4007    5.1714   46.4727 H       1  ZINC000187810810    0.0600
     33 H33         1.2318    4.8320   48.0098 H       1  ZINC000187810810    0.0900
     34 H34        -0.8647    1.7060   45.9755 H       1  ZINC000187810810    0.0700
     35 H35        -0.8236    3.3460   45.2849 H       1  ZINC000187810810    0.0700
     36 H36         0.6507    2.3486   45.2981 H       1  ZINC000187810810    0.0800
     37 H37        -2.6126    0.9293   50.4030 H       1  ZINC000187810810    0.1000
     38 H38        -1.3357    1.2938   51.5921 H       1  ZINC000187810810    0.0700
     39 H39        -4.0279    2.7079   51.3142 H       1  ZINC000187810810    0.0900
     40 H40        -3.5223    1.6375   52.6442 H       1  ZINC000187810810    0.0900
     41 H41        -3.8928    3.4500   54.3065 H       1  ZINC000187810810    0.0600
     42 H42        -3.1215    5.0388   54.0843 H       1  ZINC000187810810    0.0800
     43 H43        -4.4353    4.5275   52.9976 H       1  ZINC000187810810    0.0700
     44 H44        -1.1582    2.1615   53.4199 H       1  ZINC000187810810    0.4000
     45 H45         1.9110    3.7542   53.2337 H       1  ZINC000187810810    0.1400
     46 H46         3.8484    2.9891   54.5420 H       1  ZINC000187810810    0.1400
     47 H47         3.5682    2.3379   56.8974 H       1  ZINC000187810810    0.1400
     48 H48         1.3515    2.4477   57.9588 H       1  ZINC000187810810    0.1500
     49 H49        -2.9539    4.9181   51.0061 H       1  ZINC000187810810    0.0800
     50 H50        -1.6663    5.4568   52.1118 H       1  ZINC000187810810    0.1000
     51 H51        -0.1455    3.7334   51.2542 H       1  ZINC000187810810    0.0700
     52 H52        -0.7865    4.6713   49.8806 H       1  ZINC000187810810    0.1000
@<TRIPOS>BOND
     1     1     2    1
     2     1    28    1
     3     1    29    1
     4     1    30    1
     5     2     3    1
     6     2     4    1
     7     2     5    1
     8     3    31    1
     9     3    32    1
    10     3    33    1
    11     4    34    1
    12     4    35    1
    13     4    36    1
    14     5     6    1
    15     6     7    2
    16     6     8   am
    17     8    27    1
    18     8     9    1
    19     9    10    1
    20     9    37    1
    21     9    38    1
    22    10    11    1
    23    10    39    1
    24    10    40    1
    25    11    12    1
    26    11    13    1
    27    11    26    1
    28    12    41    1
    29    12    42    1
    30    12    43    1
    31    13    14   am
    32    13    44    1
    33    14    15    2
    34    14    16    1
    35    16    21   ar
    36    16    17   ar
    37    17    18   ar
    38    17    45    1
    39    18    19   ar
    40    18    46    1
    41    19    20   ar
    42    19    47    1
    43    20    21   ar
    44    20    48    1
    45    21    22    1
    46    22    23    1
    47    22    24    1
    48    22    25    1
    49    26    27    1
    50    26    49    1
    51    26    50    1
    52    27    51    1
    53    27    52    1
@<TRIPOS>SUBSTRUCTURE
     1 ZINC000187810810        1 TEMP              0 ****  ****    0 ROOT


##########                                Name:    ZINC000291574087
##########                DOCK_Rotatable_Bonds:                   8
##########                         Heavy_Atoms:                  23
##########                    Molecular_Weight:             387.249
##########                DOCK_Rotatable_Bonds:                   8
##########                       Formal_Charge:          -0.0400007
##########                     HBond_Acceptors:                   6
##########                        HBond_Donors:                   2
##########                         Heavy_Atoms:                  23
##########                          Grid_Score:          -27.926895
##########                     Grid_vdw_energy:          -22.964754
##########                      Grid_es_energy:           -4.962141
##########           Internal_energy_repulsive:           19.140594

@<TRIPOS>MOLECULE
ZINC000291574087
 43 44 1 0 0
SMALL
USER_CHARGES


@<TRIPOS>ATOM
      1 C1         -1.5644    1.2879   57.2946 C.3     1  ZINC000291574087    0.0200
      2 O2         -0.2570    1.8558   57.1926 O.3     1  ZINC000291574087   -0.3700
      3 C3         -0.2283    3.2776   57.3344 C.3     1  ZINC000291574087    0.1400
      4 C4         -0.6318    3.6560   58.7608 C.3     1  ZINC000291574087   -0.1500
      5 C5         -1.2076    3.9089   56.3428 C.3     1  ZINC000291574087    0.0900
      6 N6         -0.9269    3.4098   54.9943 N.am    1  ZINC000291574087   -0.6900
      7 C7         -0.8102    4.2740   53.9667 C.2     1  ZINC000291574087    0.5100
      8 O8         -0.9389    5.4654   54.1581 O.2     1  ZINC000291574087   -0.5100
      9 C9         -0.5222    3.7653   52.5924 C.2     1  ZINC000291574087    0.5100
     10 O10        -0.2107    4.5400   51.7113 O.2     1  ZINC000291574087   -0.4900
     11 N11        -0.6081    2.4460   52.3305 N.am    1  ZINC000291574087   -0.6400
     12 C12        -0.3384    1.9696   51.0435 C.ar    1  ZINC000291574087    0.1300
     13 C13         0.8598    1.3201   50.7791 C.ar    1  ZINC000291574087   -0.1000
     14 C14         1.1235    0.8500   49.5070 C.ar    1  ZINC000291574087   -0.0400
     15 C15         2.4241    0.1450   49.2201 C.3     1  ZINC000291574087   -0.1300
     16 C16         0.1953    1.0251   48.4962 C.ar    1  ZINC000291574087   -0.0900
     17 Br17        0.5612    0.3784   46.7572 Br      1  ZINC000291574087   -0.0300
     18 C18        -1.0005    1.6718   48.7549 C.ar    1  ZINC000291574087   -0.1000
     19 C19        -1.2729    2.1405   50.0267 C.ar    1  ZINC000291574087    0.0700
     20 F20        -2.4401    2.7719   50.2795 F       1  ZINC000291574087   -0.1300
     21 C21         1.1853    3.7898   57.0513 C.3     1  ZINC000291574087   -0.1900
     22 C22         2.3452    2.8140   57.2593 C.3     1  ZINC000291574087   -0.1700
     23 C23         1.9196    3.2057   55.8428 C.3     1  ZINC000291574087   -0.1600
     24 H24        -1.5008    0.2061   57.1763 H       1  ZINC000291574087    0.0900
     25 H25        -1.9871    1.5223   58.2716 H       1  ZINC000291574087    0.0400
     26 H26        -2.2023    1.7019   56.5138 H       1  ZINC000291574087    0.0500
     27 H27         0.0659    3.2062   59.4672 H       1  ZINC000291574087    0.0700
     28 H28        -0.6099    4.7403   58.8690 H       1  ZINC000291574087    0.0800
     29 H29        -1.6389    3.2910   58.9625 H       1  ZINC000291574087    0.0700
     30 H30        -2.2279    3.6461   56.6224 H       1  ZINC000291574087    0.0900
     31 H31        -1.0939    4.9928   56.3599 H       1  ZINC000291574087    0.0800
     32 H32        -0.8251    2.4574   54.8411 H       1  ZINC000291574087    0.4200
     33 H33        -0.8568    1.8270   53.0345 H       1  ZINC000291574087    0.4300
     34 H34         1.5853    1.1827   51.5671 H       1  ZINC000291574087    0.1600
     35 H35         2.3036   -0.9244   49.3933 H       1  ZINC000291574087    0.0800
     36 H36         2.7082    0.3151   48.1816 H       1  ZINC000291574087    0.0800
     37 H37         3.2012    0.5343   49.8779 H       1  ZINC000291574087    0.0800
     38 H38        -1.7230    1.8073   47.9636 H       1  ZINC000291574087    0.1500
     39 H39         1.3613    4.8391   57.2882 H       1  ZINC000291574087    0.1100
     40 H40         3.2846    3.2211   57.6334 H       1  ZINC000291574087    0.1000
     41 H41         2.1011    1.8071   57.5979 H       1  ZINC000291574087    0.1000
     42 H42         1.3957    2.4564   55.2495 H       1  ZINC000291574087    0.1000
     43 H43         2.5791    3.8706   55.2850 H       1  ZINC000291574087    0.1000
@<TRIPOS>BOND
     1     1     2    1
     2     1    24    1
     3     1    25    1
     4     1    26    1
     5     2     3    1
     6     3     4    1
     7     3     5    1
     8     3    21    1
     9     4    27    1
    10     4    28    1
    11     4    29    1
    12     5     6    1
    13     5    30    1
    14     5    31    1
    15     6     7   am
    16     6    32    1
    17     7     8    2
    18     7     9    1
    19     9    10    2
    20     9    11   am
    21    11    12    1
    22    11    33    1
    23    12    19   ar
    24    12    13   ar
    25    13    14   ar
    26    13    34    1
    27    14    15    1
    28    14    16   ar
    29    15    35    1
    30    15    36    1
    31    15    37    1
    32    16    17    1
    33    16    18   ar
    34    18    19   ar
    35    18    38    1
    36    19    20    1
    37    21    23    1
    38    21    22    1
    39    21    39    1
    40    22    23    1
    41    22    40    1
    42    22    41    1
    43    23    42    1
    44    23    43    1
@<TRIPOS>SUBSTRUCTURE
     1 ZINC000291574087        1 TEMP              0 ****  ****    0 ROOT


##########                                Name:    ZINC001173835973
##########                DOCK_Rotatable_Bonds:                   4
##########                         Heavy_Atoms:                  26
##########                    Molecular_Weight:             343.388
##########                DOCK_Rotatable_Bonds:                   4
##########                       Formal_Charge:           -0.010001
##########                     HBond_Acceptors:                   6
##########                        HBond_Donors:                   4
##########                         Heavy_Atoms:                  26
##########                          Grid_Score:          -27.906307
##########                     Grid_vdw_energy:          -27.684690
##########                      Grid_es_energy:           -0.221617
##########           Internal_energy_repulsive:            9.855301

@<TRIPOS>MOLECULE
ZINC001173835973
 43 46 1 0 0
SMALL
USER_CHARGES


@<TRIPOS>ATOM
      1 C1         -0.7041   -0.3042   46.4550 C.3     1  ZINC001173835973   -0.1700
      2 C2         -1.1490    0.8298   47.3423 C.2     1  ZINC001173835973    0.5100
      3 O3         -2.1144    1.4969   47.0358 O.2     1  ZINC001173835973   -0.5200
      4 N4         -0.4741    1.1025   48.4766 N.am    1  ZINC001173835973   -0.6800
      5 C5         -0.8870    2.1553   49.3005 C.ar    1  ZINC001173835973    0.1800
      6 C6         -1.0455    3.4303   48.7726 C.ar    1  ZINC001173835973   -0.1900
      7 C7         -1.4534    4.4710   49.5854 C.ar    1  ZINC001173835973   -0.0600
      8 C8         -1.7054    4.2474   50.9248 C.ar    1  ZINC001173835973   -0.1900
      9 C9         -1.5488    2.9737   51.4596 C.ar    1  ZINC001173835973    0.2200
     10 N10        -1.8035    2.7481   52.8137 N.pl3   1  ZINC001173835973   -0.6900
     11 C11        -2.9958    3.2052   53.3873 C.ar    1  ZINC001173835973    0.0400
     12 C12        -2.9555    4.1526   54.3675 C.ar    1  ZINC001173835973    0.2400
     13 N13        -1.7224    4.6602   54.7923 N.pl3   1  ZINC001173835973   -0.8600
     14 C14        -4.1879    4.6412   54.9763 C.ar    1  ZINC001173835973   -0.1100
     15 C15        -4.1528    5.6170   55.9857 C.ar    1  ZINC001173835973   -0.0600
     16 C16        -5.3397    6.0388   56.5208 C.ar    1  ZINC001173835973   -0.1700
     17 C17        -6.5354    5.5002   56.0606 C.ar    1  ZINC001173835973    0.1200
     18 N18        -6.5597    4.5877   55.1160 N.ar    1  ZINC001173835973   -0.4400
     19 C19        -5.4389    4.1375   54.5566 C.ar    1  ZINC001173835973    0.1900
     20 C20        -5.4823    3.1180   53.5017 C.ar    1  ZINC001173835973    0.1300
     21 N21        -6.6435    2.6212   53.0815 N.ar    1  ZINC001173835973   -0.4400
     22 C22        -6.6970    1.7084   52.1382 C.ar    1  ZINC001173835973    0.1000
     23 C23        -5.5454    1.2183   51.5345 C.ar    1  ZINC001173835973   -0.1500
     24 C24        -4.3202    1.6894   51.9227 C.ar    1  ZINC001173835973   -0.0700
     25 C25        -4.2725    2.6690   52.9277 C.ar    1  ZINC001173835973   -0.0400
     26 C26        -1.1442    1.9255   50.6445 C.ar    1  ZINC001173835973   -0.1900
     27 H27        -1.3663   -0.3712   45.5917 H       1  ZINC001173835973    0.1000
     28 H28         0.3161   -0.1224   46.1171 H       1  ZINC001173835973    0.0900
     29 H29        -0.7406   -1.2390   47.0143 H       1  ZINC001173835973    0.0900
     30 H30         0.2979    0.5689   48.7219 H       1  ZINC001173835973    0.4100
     31 H31        -0.8493    3.6088   47.7256 H       1  ZINC001173835973    0.1200
     32 H32        -1.5750    5.4615   49.1723 H       1  ZINC001173835973    0.1200
     33 H33        -2.0239    5.0627   51.5573 H       1  ZINC001173835973    0.1200
     34 H34        -1.1545    2.2744   53.3571 H       1  ZINC001173835973    0.4000
     35 H35        -0.9073    4.3991   54.3358 H       1  ZINC001173835973    0.4100
     36 H36        -1.6830    5.2731   55.5430 H       1  ZINC001173835973    0.4000
     37 H37        -3.2136    6.0237   56.3308 H       1  ZINC001173835973    0.1400
     38 H38        -5.3472    6.7878   57.2990 H       1  ZINC001173835973    0.1400
     39 H39        -7.4665    5.8397   56.4899 H       1  ZINC001173835973    0.1700
     40 H40        -7.6588    1.3298   51.8248 H       1  ZINC001173835973    0.1600
     41 H41        -5.6166    0.4676   50.7615 H       1  ZINC001173835973    0.1400
     42 H42        -3.4142    1.3202   51.4653 H       1  ZINC001173835973    0.1400
     43 H43        -1.0221    0.9350   51.0572 H       1  ZINC001173835973    0.1400
@<TRIPOS>BOND
     1     1     2    1
     2     1    27    1
     3     1    28    1
     4     1    29    1
     5     2     3    2
     6     2     4   am
     7     4     5    1
     8     4    30    1
     9     5    26   ar
    10     5     6   ar
    11     6     7   ar
    12     6    31    1
    13     7     8   ar
    14     7    32    1
    15     8     9   ar
    16     8    33    1
    17     9    10    1
    18     9    26   ar
    19    10    11    1
    20    10    34    1
    21    11    25   ar
    22    11    12   ar
    23    12    13    1
    24    12    14   ar
    25    13    35    1
    26    13    36    1
    27    14    19   ar
    28    14    15   ar
    29    15    16   ar
    30    15    37    1
    31    16    17   ar
    32    16    38    1
    33    17    18   ar
    34    17    39    1
    35    18    19   ar
    36    19    20   ar
    37    20    25   ar
    38    20    21   ar
    39    21    22   ar
    40    22    23   ar
    41    22    40    1
    42    23    24   ar
    43    23    41    1
    44    24    25   ar
    45    24    42    1
    46    26    43    1
@<TRIPOS>SUBSTRUCTURE
     1 ZINC001173835973        1 TEMP              0 ****  ****    0 ROOT


##########                                Name:    ZINC000822449555
##########                DOCK_Rotatable_Bonds:                   5
##########                         Heavy_Atoms:                  27
##########                    Molecular_Weight:             366.383
##########                DOCK_Rotatable_Bonds:                   5
##########                       Formal_Charge:          -0.0100009
##########                     HBond_Acceptors:                  10
##########                        HBond_Donors:                   2
##########                         Heavy_Atoms:                  27
##########                          Grid_Score:          -27.897728
##########                     Grid_vdw_energy:          -27.584105
##########                      Grid_es_energy:           -0.313624
##########           Internal_energy_repulsive:            8.192065

@<TRIPOS>MOLECULE
ZINC000822449555
 45 48 1 0 0
SMALL
USER_CHARGES


@<TRIPOS>ATOM
      1 C1        -10.5265   -2.8456   52.7403 C.3     1  ZINC000822449555   -0.1100
      2 C2        -11.5528   -1.7431   52.6893 C.ar    1  ZINC000822449555    0.1400
      3 N3        -12.8193   -2.0193   52.9342 N.ar    1  ZINC000822449555   -0.5000
      4 C4        -13.7545   -1.0830   52.9005 C.ar    1  ZINC000822449555    0.3000
      5 N5        -15.0783   -1.4226   53.1660 N.3     1  ZINC000822449555   -0.4700
      6 C6        -15.3070   -1.5606   54.6117 C.3     1  ZINC000822449555    0.0200
      7 C7        -16.7844   -1.8748   54.8616 C.3     1  ZINC000822449555    0.0600
      8 O8        -17.1436   -3.0569   54.1413 O.3     1  ZINC000822449555   -0.3800
      9 C9        -16.9343   -2.9572   52.7300 C.3     1  ZINC000822449555    0.0600
     10 C10       -15.4584   -2.6540   52.4586 C.3     1  ZINC000822449555    0.0300
     11 C11       -13.4294    0.2362   52.6033 C.ar    1  ZINC000822449555   -0.1700
     12 C12       -12.1116    0.5630   52.3411 C.ar    1  ZINC000822449555   -0.0500
     13 C13       -11.1540   -0.4488   52.3909 C.ar    1  ZINC000822449555    0.0600
     14 N14        -9.8069   -0.1636   52.1322 N.am    1  ZINC000822449555   -0.6600
     15 C15        -9.1374    0.7001   52.9209 C.2     1  ZINC000822449555    0.5700
     16 O16        -9.7024    1.2321   53.8570 O.2     1  ZINC000822449555   -0.5100
     17 C17        -7.7173    1.0007   52.6481 C.ar    1  ZINC000822449555   -0.1800
     18 C18        -7.0724    2.0508   53.3155 C.ar    1  ZINC000822449555   -0.0100
     19 C19        -5.7438    2.2941   53.0273 C.ar    1  ZINC000822449555   -0.1300
     20 C20        -5.0931    1.4934   52.0897 C.ar    1  ZINC000822449555    0.2300
     21 C21        -3.6662    1.7478   51.7744 C.2     1  ZINC000822449555    0.2100
     22 N22        -2.9214    2.7340   52.2348 N.2     1  ZINC000822449555   -0.2500
     23 N23        -1.7430    2.6073   51.7288 N.pl3   1  ZINC000822449555   -0.2200
     24 N24        -1.7171    1.5730   50.9628 N.2     1  ZINC000822449555   -0.0400
     25 N25        -2.8808    1.0166   50.9703 N.2     1  ZINC000822449555   -0.2500
     26 N26        -5.7336    0.5059   51.4755 N.ar    1  ZINC000822449555   -0.4500
     27 C27        -6.9966    0.2386   51.7257 C.ar    1  ZINC000822449555    0.1400
     28 H28       -10.1305   -2.9268   53.7526 H       1  ZINC000822449555    0.0800
     29 H29       -10.9924   -3.7891   52.4557 H       1  ZINC000822449555    0.0800
     30 H30        -9.7145   -2.6185   52.0495 H       1  ZINC000822449555    0.0700
     31 H31       -14.6915   -2.3712   55.0018 H       1  ZINC000822449555    0.0600
     32 H32       -15.0433   -0.6290   55.1125 H       1  ZINC000822449555    0.1000
     33 H33       -16.9474   -2.0343   55.9274 H       1  ZINC000822449555    0.1100
     34 H34       -17.3968   -1.0402   54.5199 H       1  ZINC000822449555    0.0600
     35 H35       -17.2058   -3.8996   52.2544 H       1  ZINC000822449555    0.1000
     36 H36       -17.5510   -2.1542   52.3265 H       1  ZINC000822449555    0.0600
     37 H37       -15.3051   -2.5207   51.3878 H       1  ZINC000822449555    0.1000
     38 H38       -14.8454   -3.4822   52.8144 H       1  ZINC000822449555    0.0600
     39 H39       -14.1967    0.9958   52.5773 H       1  ZINC000822449555    0.1400
     40 H40       -11.8302    1.5791   52.1071 H       1  ZINC000822449555    0.1500
     41 H41        -9.3561   -0.5880   51.3854 H       1  ZINC000822449555    0.4100
     42 H42        -7.6016    2.6554   54.0372 H       1  ZINC000822449555    0.1600
     43 H43        -5.2152    3.0953   53.5224 H       1  ZINC000822449555    0.1600
     44 H44        -0.9931    3.1985   51.8985 H       1  ZINC000822449555    0.4800
     45 H45        -7.4841   -0.5732   51.2063 H       1  ZINC000822449555    0.1700
@<TRIPOS>BOND
     1     1     2    1
     2     1    28    1
     3     1    29    1
     4     1    30    1
     5     2    13   ar
     6     2     3   ar
     7     3     4   ar
     8     4     5    1
     9     4    11   ar
    10     5    10    1
    11     5     6    1
    12     6     7    1
    13     6    31    1
    14     6    32    1
    15     7     8    1
    16     7    33    1
    17     7    34    1
    18     8     9    1
    19     9    10    1
    20     9    35    1
    21     9    36    1
    22    10    37    1
    23    10    38    1
    24    11    12   ar
    25    11    39    1
    26    12    13   ar
    27    12    40    1
    28    13    14    1
    29    14    15   am
    30    14    41    1
    31    15    16    2
    32    15    17    1
    33    17    27   ar
    34    17    18   ar
    35    18    19   ar
    36    18    42    1
    37    19    20   ar
    38    19    43    1
    39    20    21    1
    40    20    26   ar
    41    21    25    1
    42    21    22    2
    43    22    23    1
    44    23    24    1
    45    23    44    1
    46    24    25    2
    47    26    27   ar
    48    27    45    1
@<TRIPOS>SUBSTRUCTURE
     1 ZINC000822449555        1 TEMP              0 ****  ****    0 ROOT


##########                                Name:    ZINC000055987960
##########                DOCK_Rotatable_Bonds:                   6
##########                         Heavy_Atoms:                  28
##########                    Molecular_Weight:             404.868
##########                DOCK_Rotatable_Bonds:                   6
##########                       Formal_Charge:          0.00999941
##########                     HBond_Acceptors:                   7
##########                        HBond_Donors:                   1
##########                         Heavy_Atoms:                  28
##########                          Grid_Score:          -27.893415
##########                     Grid_vdw_energy:          -28.668520
##########                      Grid_es_energy:            0.775104
##########           Internal_energy_repulsive:           12.433652

@<TRIPOS>MOLECULE
ZINC000055987960
 50 52 1 0 0
SMALL
USER_CHARGES


@<TRIPOS>ATOM
      1 C1        -12.3598    1.1278   61.2466 C.3     1  ZINC000055987960   -0.1800
      2 C2        -12.2539   -0.0434   62.2253 C.3     1  ZINC000055987960    0.0700
      3 H3        -13.2534   -0.3909   62.4867 H       1  ZINC000055987960    0.1200
      4 C4        -11.4689   -1.1868   61.5723 C.3     1  ZINC000055987960    0.0800
      5 N5        -10.0735   -0.7526   61.3999 N.am    1  ZINC000055987960   -0.6100
      6 C6         -9.4511   -0.8734   60.2106 C.2     1  ZINC000055987960    0.5700
      7 O7         -8.2977   -0.5087   60.0883 O.2     1  ZINC000055987960   -0.5300
      8 C8        -10.1696   -1.4484   59.0567 C.ar    1  ZINC000055987960   -0.1500
      9 C9        -10.4220   -2.8218   59.0026 C.ar    1  ZINC000055987960   -0.0700
     10 C10       -11.0928   -3.3549   57.9249 C.ar    1  ZINC000055987960   -0.1500
     11 C11       -11.5194   -2.5278   56.8906 C.ar    1  ZINC000055987960    0.1700
     12 N12       -12.1989   -3.0709   55.8009 N.am    1  ZINC000055987960   -0.6700
     13 C13       -11.5084   -3.5653   54.7543 C.2     1  ZINC000055987960    0.5200
     14 O14       -10.2959   -3.5377   54.7604 O.2     1  ZINC000055987960   -0.5000
     15 C15       -12.2427   -4.1523   53.5765 C.3     1  ZINC000055987960   -0.1100
     16 C16       -13.2582   -3.1596   53.0721 C.ar    1  ZINC000055987960   -0.1000
     17 C17       -14.5561   -3.1924   53.5518 C.ar    1  ZINC000055987960    0.1300
     18 F18       -14.9134   -4.1144   54.4723 F       1  ZINC000055987960   -0.1300
     19 C19       -15.4882   -2.2793   53.0877 C.ar    1  ZINC000055987960   -0.1500
     20 C20       -15.1223   -1.3362   52.1465 C.ar    1  ZINC000055987960   -0.0700
     21 C21       -13.8259   -1.3033   51.6674 C.ar    1  ZINC000055987960   -0.1200
     22 C22       -12.8921   -2.2114   52.1337 C.ar    1  ZINC000055987960    0.0000
     23 Cl23      -11.2643   -2.1689   51.5319 Cl      1  ZINC000055987960   -0.0500
     24 C24       -11.2697   -1.1600   56.9414 C.ar    1  ZINC000055987960   -0.1200
     25 C25       -10.6040   -0.6198   58.0186 C.ar    1  ZINC000055987960   -0.0500
     26 C26        -9.3778   -0.1820   62.5644 C.3     1  ZINC000055987960    0.0600
     27 C27       -10.2647    0.9125   63.1690 C.3     1  ZINC000055987960    0.0700
     28 H28       -10.3330    1.7503   62.4751 H       1  ZINC000055987960    0.0700
     29 C29        -9.6579    1.3905   64.4896 C.3     1  ZINC000055987960   -0.1500
     30 O30       -11.5719    0.3822   63.4074 O.3     1  ZINC000055987960   -0.3700
     31 H31       -11.3600    1.4748   60.9855 H       1  ZINC000055987960    0.0600
     32 H32       -12.8783    0.8021   60.3448 H       1  ZINC000055987960    0.0700
     33 H33       -12.9165    1.9411   61.7121 H       1  ZINC000055987960    0.0700
     34 H34       -11.5027   -2.0680   62.2130 H       1  ZINC000055987960    0.0800
     35 H35       -11.9029   -1.4220   60.6005 H       1  ZINC000055987960    0.1000
     36 H36       -10.0910   -3.4645   59.8049 H       1  ZINC000055987960    0.1400
     37 H37       -11.2879   -4.4163   57.8822 H       1  ZINC000055987960    0.1300
     38 H38       -13.1686   -3.0929   55.7960 H       1  ZINC000055987960    0.4200
     39 H39       -11.5319   -4.3804   52.7822 H       1  ZINC000055987960    0.1200
     40 H40       -12.7500   -5.0668   53.8837 H       1  ZINC000055987960    0.1200
     41 H41       -16.5013   -2.3045   53.4613 H       1  ZINC000055987960    0.1500
     42 H42       -15.8495   -0.6245   51.7846 H       1  ZINC000055987960    0.1500
     43 H43       -13.5409   -0.5661   50.9315 H       1  ZINC000055987960    0.1400
     44 H44       -11.6017   -0.5208   56.1366 H       1  ZINC000055987960    0.1500
     45 H45       -10.4105    0.4420   58.0575 H       1  ZINC000055987960    0.1300
     46 H46        -9.2011   -0.9621   63.3049 H       1  ZINC000055987960    0.0800
     47 H47        -8.4271    0.2481   62.2496 H       1  ZINC000055987960    0.1100
     48 H48        -8.6607    1.7910   64.3073 H       1  ZINC000055987960    0.0700
     49 H49       -10.2890    2.1687   64.9188 H       1  ZINC000055987960    0.0700
     50 H50        -9.5916    0.5525   65.1835 H       1  ZINC000055987960    0.0700
@<TRIPOS>BOND
     1     1     2    1
     2     1    31    1
     3     1    32    1
     4     1    33    1
     5     2     3    1
     6     2    30    1
     7     2     4    1
     8     4     5    1
     9     4    34    1
    10     4    35    1
    11     5     6   am
    12     5    26    1
    13     6     7    2
    14     6     8    1
    15     8    25   ar
    16     8     9   ar
    17     9    10   ar
    18     9    36    1
    19    10    11   ar
    20    10    37    1
    21    11    12    1
    22    11    24   ar
    23    12    13   am
    24    12    38    1
    25    13    14    2
    26    13    15    1
    27    15    16    1
    28    15    39    1
    29    15    40    1
    30    16    22   ar
    31    16    17   ar
    32    17    18    1
    33    17    19   ar
    34    19    20   ar
    35    19    41    1
    36    20    21   ar
    37    20    42    1
    38    21    22   ar
    39    21    43    1
    40    22    23    1
    41    24    25   ar
    42    24    44    1
    43    25    45    1
    44    26    27    1
    45    26    46    1
    46    26    47    1
    47    27    28    1
    48    27    29    1
    49    27    30    1
    50    29    48    1
    51    29    49    1
    52    29    50    1
@<TRIPOS>SUBSTRUCTURE
     1 ZINC000055987960        1 TEMP              0 ****  ****    0 ROOT


##########                                Name:    ZINC001045463759
##########                DOCK_Rotatable_Bonds:                   6
##########                         Heavy_Atoms:                  24
##########                    Molecular_Weight:             336.385
##########                DOCK_Rotatable_Bonds:                   6
##########                       Formal_Charge:          1.3411e-07
##########                     HBond_Acceptors:                   7
##########                        HBond_Donors:                   2
##########                         Heavy_Atoms:                  24
##########                          Grid_Score:          -27.885094
##########                     Grid_vdw_energy:          -27.927963
##########                      Grid_es_energy:            0.042870
##########           Internal_energy_repulsive:            9.388227

@<TRIPOS>MOLECULE
ZINC001045463759
 46 49 1 0 0
SMALL
USER_CHARGES


@<TRIPOS>ATOM
      1 O1        -13.5967   -1.3326   49.6646 O.2     1  ZINC001045463759   -0.5100
      2 C2        -12.9899   -0.3464   50.0252 C.2     1  ZINC001045463759    0.5400
      3 N3        -12.2899   -0.3695   51.1767 N.am    1  ZINC001045463759   -0.7200
      4 C4        -12.2669   -1.5839   51.9958 C.3     1  ZINC001045463759    0.1400
      5 H5        -12.3460   -2.4588   51.3505 H       1  ZINC001045463759    0.1000
      6 C6        -13.4443   -1.5626   52.9726 C.3     1  ZINC001045463759   -0.1300
      7 C7        -13.4204   -2.8309   53.8280 C.3     1  ZINC001045463759   -0.1200
      8 C8        -12.1080   -2.8924   54.6122 C.3     1  ZINC001045463759   -0.1200
      9 C9        -10.9307   -2.9137   53.6354 C.3     1  ZINC001045463759   -0.1300
     10 C10       -10.9546   -1.6455   52.7800 C.3     1  ZINC001045463759    0.1500
     11 H11       -10.8757   -0.7705   53.4253 H       1  ZINC001045463759    0.0900
     12 N12        -9.8272   -1.6659   51.8447 N.pl3   1  ZINC001045463759   -0.7100
     13 C13        -8.7136   -0.8776   52.0849 C.ar    1  ZINC001045463759    0.4400
     14 C14        -7.4996   -1.1535   51.4528 C.ar    1  ZINC001045463759   -0.3000
     15 C15        -6.4185   -0.3384   51.7253 C.ar    1  ZINC001045463759    0.1800
     16 N16        -6.5670    0.6714   52.5711 N.ar    1  ZINC001045463759   -0.5600
     17 C17        -7.7265    0.9057   53.1518 C.ar    1  ZINC001045463759    0.4000
     18 C18        -7.8467    2.0657   54.1064 C.3     1  ZINC001045463759   -0.1100
     19 C19        -8.9198    1.9778   55.1934 C.3     1  ZINC001045463759   -0.1500
     20 C20        -7.4427    1.8270   55.5627 C.3     1  ZINC001045463759   -0.1500
     21 N21        -8.7852    0.1574   52.9170 N.ar    1  ZINC001045463759   -0.5700
     22 C22       -13.0135    0.9029   49.1827 C.3     1  ZINC001045463759   -0.2000
     23 H23       -12.5762    1.7888   49.6432 H       1  ZINC001045463759    0.1500
     24 C24       -12.8488    0.7384   47.6705 C.3     1  ZINC001045463759   -0.1500
     25 C25       -14.2139    1.1078   48.2564 C.3     1  ZINC001045463759    0.2300
     26 F26       -15.2055    0.1208   48.2561 F       1  ZINC001045463759   -0.1400
     27 F27       -14.6660    2.4177   48.0649 F       1  ZINC001045463759   -0.1500
     28 H28       -11.8013    0.4180   51.4632 H       1  ZINC001045463759    0.4000
     29 H29       -13.3653   -0.6877   53.6178 H       1  ZINC001045463759    0.0700
     30 H30       -14.3793   -1.5188   52.4139 H       1  ZINC001045463759    0.0800
     31 H31       -14.2592   -2.8158   54.5239 H       1  ZINC001045463759    0.0700
     32 H32       -13.4994   -3.7059   53.1827 H       1  ZINC001045463759    0.0700
     33 H33       -12.0291   -2.0176   55.2574 H       1  ZINC001045463759    0.0700
     34 H34       -12.0910   -3.7960   55.2215 H       1  ZINC001045463759    0.0700
     35 H35        -9.9957   -2.9576   54.1940 H       1  ZINC001045463759    0.0700
     36 H36       -11.0097   -3.7887   52.9901 H       1  ZINC001045463759    0.0700
     37 H37        -9.8606   -2.2312   51.0572 H       1  ZINC001045463759    0.4100
     38 H38        -7.4081   -1.9839   50.7682 H       1  ZINC001045463759    0.1400
     39 H39        -5.4636   -0.5216   51.2553 H       1  ZINC001045463759    0.1700
     40 H40        -7.6398    3.0477   53.6812 H       1  ZINC001045463759    0.1300
     41 H41        -9.4193    2.9022   55.4834 H       1  ZINC001045463759    0.1000
     42 H42        -9.5389    1.0809   55.2181 H       1  ZINC001045463759    0.1100
     43 H43        -7.0900    0.8310   55.8303 H       1  ZINC001045463759    0.1000
     44 H44        -6.9704    2.6522   56.0957 H       1  ZINC001045463759    0.1000
     45 H45       -12.3035    1.5163   47.1361 H       1  ZINC001045463759    0.1400
     46 H46       -12.7234   -0.2734   47.2850 H       1  ZINC001045463759    0.1300
@<TRIPOS>BOND
     1     1     2    2
     2     2     3   am
     3     2    22    1
     4     3     4    1
     5     3    28    1
     6     4     5    1
     7     4    10    1
     8     4     6    1
     9     6     7    1
    10     6    29    1
    11     6    30    1
    12     7     8    1
    13     7    31    1
    14     7    32    1
    15     8     9    1
    16     8    33    1
    17     8    34    1
    18     9    10    1
    19     9    35    1
    20     9    36    1
    21    10    11    1
    22    10    12    1
    23    12    13    1
    24    12    37    1
    25    13    21   ar
    26    13    14   ar
    27    14    15   ar
    28    14    38    1
    29    15    16   ar
    30    15    39    1
    31    16    17   ar
    32    17    18    1
    33    17    21   ar
    34    18    20    1
    35    18    19    1
    36    18    40    1
    37    19    20    1
    38    19    41    1
    39    19    42    1
    40    20    43    1
    41    20    44    1
    42    22    23    1
    43    22    25    1
    44    22    24    1
    45    24    25    1
    46    24    45    1
    47    24    46    1
    48    25    26    1
    49    25    27    1
@<TRIPOS>SUBSTRUCTURE
     1 ZINC001045463759        1 TEMP              0 ****  ****    0 ROOT


##########                                Name:    ZINC001300804061
##########                DOCK_Rotatable_Bonds:                   5
##########                         Heavy_Atoms:                  27
##########                    Molecular_Weight:              390.55
##########                DOCK_Rotatable_Bonds:                   5
##########                       Formal_Charge:                0.01
##########                     HBond_Acceptors:                   7
##########                        HBond_Donors:                   0
##########                         Heavy_Atoms:                  27
##########                          Grid_Score:          -27.870516
##########                     Grid_vdw_energy:          -27.522911
##########                      Grid_es_energy:           -0.347605
##########           Internal_energy_repulsive:            7.760618

@<TRIPOS>MOLECULE
ZINC001300804061
 57 60 1 0 0
SMALL
USER_CHARGES


@<TRIPOS>ATOM
      1 C1         -0.8194    6.5167   52.2050 C.3     1  ZINC001300804061    0.0300
      2 O2         -1.9703    5.6998   51.9809 O.3     1  ZINC001300804061   -0.3800
      3 C3         -1.6751    4.3106   51.8226 C.3     1  ZINC001300804061    0.1000
      4 H4         -0.8176    4.0479   52.4422 H       1  ZINC001300804061    0.0700
      5 C5         -1.3530    4.0207   50.3550 C.3     1  ZINC001300804061    0.0500
      6 N6         -1.0701    2.5895   50.1879 N.3     1  ZINC001300804061   -0.4600
      7 C7         -0.6478    2.3143   48.8984 C.2     1  ZINC001300804061    0.3600
      8 N8         -1.4151    2.0197   47.8742 N.2     1  ZINC001300804061   -0.3000
      9 N9         -0.6982    1.8223   46.8261 N.2     1  ZINC001300804061   -0.2500
     10 C10         0.5745    1.9792   47.1178 C.2     1  ZINC001300804061    0.2600
     11 C11         1.7086    1.8393   46.1909 C.2     1  ZINC001300804061    0.0400
     12 C12         2.3828    2.8605   45.5917 C.2     1  ZINC001300804061   -0.1300
     13 C13         3.3835    2.2725   44.7941 C.2     1  ZINC001300804061   -0.2100
     14 C14         3.2741    0.9373   44.9425 C.2     1  ZINC001300804061    0.0100
     15 C15         4.1438   -0.0948   44.2721 C.3     1  ZINC001300804061   -0.0800
     16 O16         2.2654    0.6790   45.7912 O.3     1  ZINC001300804061   -0.1700
     17 N17         0.6439    2.3047   48.4544 N.pl3   1  ZINC001300804061   -0.4600
     18 C18         1.8516    2.5758   49.2380 C.3     1  ZINC001300804061    0.1200
     19 C19         2.6003    1.2657   49.4909 C.3     1  ZINC001300804061   -0.1000
     20 H20         2.5948    0.6645   48.5816 H       1  ZINC001300804061    0.0900
     21 C21         1.9088    0.4953   50.6118 C.3     1  ZINC001300804061   -0.1200
     22 C22         2.4599   -0.9241   50.7111 C.3     1  ZINC001300804061   -0.1200
     23 C23         3.8888   -0.8926   51.2597 C.3     1  ZINC001300804061   -0.0800
     24 S24         4.9471    0.0093   50.0893 S.3     1  ZINC001300804061   -0.2600
     25 C25         4.0464    1.5751   49.8870 C.3     1  ZINC001300804061   -0.0700
     26 C26        -2.2368    1.7725   50.5452 C.3     1  ZINC001300804061    0.0600
     27 C27        -2.5854    1.9953   52.0186 C.3     1  ZINC001300804061   -0.1100
     28 C28        -2.8878    3.4785   52.2487 C.3     1  ZINC001300804061   -0.0900
     29 H29        -3.7548    3.7698   51.6558 H       1  ZINC001300804061    0.0800
     30 C30        -3.1791    3.7169   53.7317 C.3     1  ZINC001300804061   -0.1400
     31 H31        -0.3132    6.1899   53.1135 H       1  ZINC001300804061    0.0400
     32 H32        -0.1395    6.4269   51.3579 H       1  ZINC001300804061    0.0400
     33 H33        -1.1277    7.5564   52.3149 H       1  ZINC001300804061    0.0900
     34 H34        -2.2054    4.2972   49.7344 H       1  ZINC001300804061    0.0700
     35 H35        -0.4809    4.6008   50.0530 H       1  ZINC001300804061    0.0800
     36 H36         2.1873    3.9166   45.7059 H       1  ZINC001300804061    0.1600
     37 H37         4.1029    2.7933   44.1795 H       1  ZINC001300804061    0.1600
     38 H38         5.0061   -0.3090   44.9037 H       1  ZINC001300804061    0.0900
     39 H39         3.5702   -1.0088   44.1183 H       1  ZINC001300804061    0.0800
     40 H40         4.4844    0.2868   43.3096 H       1  ZINC001300804061    0.0900
     41 H41         2.4955    3.2618   48.6876 H       1  ZINC001300804061    0.1100
     42 H42         1.5729    3.0250   50.1913 H       1  ZINC001300804061    0.1000
     43 H43         2.0743    1.0117   51.5573 H       1  ZINC001300804061    0.0700
     44 H44         0.8385    0.4515   50.4100 H       1  ZINC001300804061    0.0800
     45 H45         1.8290   -1.5114   51.3783 H       1  ZINC001300804061    0.0800
     46 H46         2.4620   -1.3815   49.7218 H       1  ZINC001300804061    0.0800
     47 H47         3.8983   -0.3868   52.2252 H       1  ZINC001300804061    0.0800
     48 H48         4.2581   -1.9116   51.3754 H       1  ZINC001300804061    0.1100
     49 H49         4.5182    2.1693   49.1044 H       1  ZINC001300804061    0.1000
     50 H50         4.0596    2.1280   50.8262 H       1  ZINC001300804061    0.0900
     51 H51        -3.0852    2.0595   49.9239 H       1  ZINC001300804061    0.0600
     52 H52        -2.0068    0.7196   50.3816 H       1  ZINC001300804061    0.0800
     53 H53        -3.4609    1.4006   52.2794 H       1  ZINC001300804061    0.0800
     54 H54        -1.7425    1.6954   52.6413 H       1  ZINC001300804061    0.0800
     55 H55        -2.3107    3.4275   54.3236 H       1  ZINC001300804061    0.0500
     56 H56        -3.3942    4.7729   53.8946 H       1  ZINC001300804061    0.0600
     57 H57        -4.0398    3.1201   54.0335 H       1  ZINC001300804061    0.0600
@<TRIPOS>BOND
     1     1     2    1
     2     1    31    1
     3     1    32    1
     4     1    33    1
     5     2     3    1
     6     3     4    1
     7     3    28    1
     8     3     5    1
     9     5     6    1
    10     5    34    1
    11     5    35    1
    12     6     7    1
    13     6    26    1
    14     7    17    1
    15     7     8    2
    16     8     9    1
    17     9    10    2
    18    10    11    1
    19    10    17    1
    20    11    16    1
    21    11    12    2
    22    12    13    1
    23    12    36    1
    24    13    14    2
    25    13    37    1
    26    14    15    1
    27    14    16    1
    28    15    38    1
    29    15    39    1
    30    15    40    1
    31    17    18    1
    32    18    19    1
    33    18    41    1
    34    18    42    1
    35    19    20    1
    36    19    25    1
    37    19    21    1
    38    21    22    1
    39    21    43    1
    40    21    44    1
    41    22    23    1
    42    22    45    1
    43    22    46    1
    44    23    24    1
    45    23    47    1
    46    23    48    1
    47    24    25    1
    48    25    49    1
    49    25    50    1
    50    26    27    1
    51    26    51    1
    52    26    52    1
    53    27    28    1
    54    27    53    1
    55    27    54    1
    56    28    29    1
    57    28    30    1
    58    30    55    1
    59    30    56    1
    60    30    57    1
@<TRIPOS>SUBSTRUCTURE
     1 ZINC001300804061        1 TEMP              0 ****  ****    0 ROOT


##########                                Name:    ZINC000618094467
##########                DOCK_Rotatable_Bonds:                   5
##########                         Heavy_Atoms:                  27
##########                    Molecular_Weight:             370.492
##########                DOCK_Rotatable_Bonds:                   5
##########                       Formal_Charge:                0.03
##########                     HBond_Acceptors:                   5
##########                        HBond_Donors:                   0
##########                         Heavy_Atoms:                  27
##########                          Grid_Score:          -27.810303
##########                     Grid_vdw_energy:          -27.572462
##########                      Grid_es_energy:           -0.237841
##########           Internal_energy_repulsive:           76.787003

@<TRIPOS>MOLECULE
ZINC000618094467
 57 59 1 0 0
SMALL
USER_CHARGES


@<TRIPOS>ATOM
      1 C1        -16.3245   -1.9901   57.6805 C.3     1  ZINC000618094467   -0.1500
      2 C2        -16.1511   -2.7582   58.9922 C.3     1  ZINC000618094467   -0.1000
      3 C3        -14.9742   -2.1723   59.7747 C.3     1  ZINC000618094467   -0.1100
      4 H4        -15.1596   -1.1167   59.9738 H       1  ZINC000618094467    0.1000
      5 C5        -14.8192   -2.9214   61.0998 C.3     1  ZINC000618094467   -0.1500
      6 C6        -13.7112   -2.3166   58.9655 C.2     1  ZINC000618094467    0.5200
      7 O7        -13.6293   -3.1804   58.1181 O.2     1  ZINC000618094467   -0.5000
      8 N8        -12.6726   -1.4857   59.1832 N.am    1  ZINC000618094467   -0.6100
      9 C9        -12.7400   -0.4309   60.2002 C.3     1  ZINC000618094467    0.1400
     10 C10       -11.4576   -0.4074   60.9933 C.ar    1  ZINC000618094467   -0.1000
     11 C11       -11.4268    0.3556   62.1523 C.ar    1  ZINC000618094467   -0.1100
     12 C12       -10.2789    0.4249   62.9151 C.ar    1  ZINC000618094467   -0.1200
     13 C13        -9.1511   -0.2701   62.5207 C.ar    1  ZINC000618094467   -0.1100
     14 C14        -9.1818   -1.0321   61.3712 C.ar    1  ZINC000618094467   -0.1200
     15 C15       -10.3379   -1.1086   60.6045 C.ar    1  ZINC000618094467   -0.0600
     16 C16       -10.3058   -1.9816   59.3778 C.3     1  ZINC000618094467   -0.0800
     17 C17       -11.4229   -1.6045   58.4141 C.3     1  ZINC000618094467    0.1200
     18 H18       -11.1946   -0.6495   57.9406 H       1  ZINC000618094467    0.1000
     19 C19       -11.5704   -2.6729   57.3615 C.2     1  ZINC000618094467    0.5500
     20 O20       -11.1586   -3.7938   57.5734 O.2     1  ZINC000618094467   -0.5200
     21 N21       -12.1598   -2.3826   56.1848 N.am    1  ZINC000618094467   -0.6100
     22 C22       -12.6560   -1.0266   55.9170 C.3     1  ZINC000618094467    0.1200
     23 C23       -11.9726   -0.4916   54.6522 C.3     1  ZINC000618094467   -0.1600
     24 H24       -12.4637    0.4268   54.3302 H       1  ZINC000618094467    0.1100
     25 C25       -10.4968   -0.2115   54.9432 C.3     1  ZINC000618094467   -0.1400
     26 C26       -12.0886   -1.5389   53.5666 C.2     1  ZINC000618094467    0.3700
     27 O27       -12.5428   -1.2591   52.4832 O.2     1  ZINC000618094467   -0.4400
     28 C28       -11.6212   -2.9453   53.8710 C.3     1  ZINC000618094467   -0.1600
     29 H29       -10.5406   -2.9502   54.0133 H       1  ZINC000618094467    0.1100
     30 C30       -11.9924   -3.8735   52.7128 C.3     1  ZINC000618094467   -0.1400
     31 C31       -12.3080   -3.4173   55.1531 C.3     1  ZINC000618094467    0.1400
     32 H32       -15.4145   -2.0756   57.0864 H       1  ZINC000618094467    0.0500
     33 H33       -17.1630   -2.4075   57.1230 H       1  ZINC000618094467    0.0600
     34 H34       -16.5193   -0.9398   57.8975 H       1  ZINC000618094467    0.0600
     35 H35       -17.0610   -2.6726   59.5864 H       1  ZINC000618094467    0.0700
     36 H36       -15.9563   -3.8084   58.7752 H       1  ZINC000618094467    0.0700
     37 H37       -14.7718   -3.9933   60.9078 H       1  ZINC000618094467    0.0700
     38 H38       -13.9024   -2.5998   61.5939 H       1  ZINC000618094467    0.0700
     39 H39       -15.6731   -2.7047   61.7417 H       1  ZINC000618094467    0.0700
     40 H40       -12.8830    0.5338   59.7133 H       1  ZINC000618094467    0.0900
     41 H41       -13.5774   -0.6259   60.8702 H       1  ZINC000618094467    0.1100
     42 H42       -12.3078    0.8997   62.4593 H       1  ZINC000618094467    0.1300
     43 H43       -10.2616    1.0198   63.8163 H       1  ZINC000618094467    0.1300
     44 H44        -8.2481   -0.2166   63.1109 H       1  ZINC000618094467    0.1200
     45 H45        -8.2992   -1.5737   61.0642 H       1  ZINC000618094467    0.1200
     46 H46        -9.3442   -1.8628   58.8783 H       1  ZINC000618094467    0.0900
     47 H47       -10.4280   -3.0230   59.6756 H       1  ZINC000618094467    0.1000
     48 H48       -13.7349   -1.0556   55.7650 H       1  ZINC000618094467    0.0700
     49 H49       -12.4211   -0.3782   56.7613 H       1  ZINC000618094467    0.0900
     50 H50        -9.9877   -1.1477   55.1726 H       1  ZINC000618094467    0.0600
     51 H51       -10.0352    0.2486   54.0696 H       1  ZINC000618094467    0.0600
     52 H52       -10.4163    0.4640   55.7948 H       1  ZINC000618094467    0.0700
     53 H53       -11.5131   -3.5233   51.7986 H       1  ZINC000618094467    0.0700
     54 H54       -11.6543   -4.8856   52.9355 H       1  ZINC000618094467    0.0700
     55 H55       -13.0741   -3.8731   52.5791 H       1  ZINC000618094467    0.0600
     56 H56       -11.8467   -4.3439   55.4948 H       1  ZINC000618094467    0.1100
     57 H57       -13.3677   -3.5837   54.9600 H       1  ZINC000618094467    0.0700
@<TRIPOS>BOND
     1     1     2    1
     2     1    32    1
     3     1    33    1
     4     1    34    1
     5     2     3    1
     6     2    35    1
     7     2    36    1
     8     3     4    1
     9     3     5    1
    10     3     6    1
    11     5    37    1
    12     5    38    1
    13     5    39    1
    14     6     7    2
    15     6     8   am
    16     8    17    1
    17     8     9    1
    18     9    10    1
    19     9    40    1
    20     9    41    1
    21    10    15   ar
    22    10    11   ar
    23    11    12   ar
    24    11    42    1
    25    12    13   ar
    26    12    43    1
    27    13    14   ar
    28    13    44    1
    29    14    15   ar
    30    14    45    1
    31    15    16    1
    32    16    17    1
    33    16    46    1
    34    16    47    1
    35    17    18    1
    36    17    19    1
    37    19    20    2
    38    19    21   am
    39    21    31    1
    40    21    22    1
    41    22    23    1
    42    22    48    1
    43    22    49    1
    44    23    24    1
    45    23    25    1
    46    23    26    1
    47    25    50    1
    48    25    51    1
    49    25    52    1
    50    26    27    2
    51    26    28    1
    52    28    29    1
    53    28    30    1
    54    28    31    1
    55    30    53    1
    56    30    54    1
    57    30    55    1
    58    31    56    1
    59    31    57    1
@<TRIPOS>SUBSTRUCTURE
     1 ZINC000618094467        1 TEMP              0 ****  ****    0 ROOT


##########                                Name:    ZINC000477669194
##########                DOCK_Rotatable_Bonds:                   6
##########                         Heavy_Atoms:                  26
##########                    Molecular_Weight:             387.483
##########                DOCK_Rotatable_Bonds:                   6
##########                       Formal_Charge:         4.47035e-07
##########                     HBond_Acceptors:                   8
##########                        HBond_Donors:                   2
##########                         Heavy_Atoms:                  26
##########                          Grid_Score:          -27.790586
##########                     Grid_vdw_energy:          -28.934633
##########                      Grid_es_energy:            1.144047
##########           Internal_energy_repulsive:           32.188026

@<TRIPOS>MOLECULE
ZINC000477669194
 43 45 1 0 0
SMALL
USER_CHARGES


@<TRIPOS>ATOM
      1 C1         -7.5758    4.1205   55.7632 C.3     1  ZINC000477669194   -0.0800
      2 C2         -6.1703    4.4066   55.3007 C.2     1  ZINC000477669194    0.0500
      3 N3         -5.6202    3.8871   54.2583 N.2     1  ZINC000477669194   -0.4900
      4 C4         -4.3730    4.2466   53.9907 C.2     1  ZINC000477669194    0.1200
      5 C5         -3.6165    3.7291   52.8248 C.ar    1  ZINC000477669194   -0.0600
      6 C6         -2.3542    4.2368   52.5289 C.ar    1  ZINC000477669194   -0.0800
      7 C7         -1.6537    3.7518   51.4422 C.ar    1  ZINC000477669194   -0.1400
      8 C8         -2.2008    2.7624   50.6449 C.ar    1  ZINC000477669194   -0.0900
      9 C9         -3.4532    2.2509   50.9284 C.ar    1  ZINC000477669194   -0.1300
     10 C10        -4.1657    2.7239   52.0200 C.ar    1  ZINC000477669194    0.1800
     11 N11        -5.4320    2.2076   52.3086 N.am    1  ZINC000477669194   -0.6500
     12 C12        -5.6490    0.8791   52.2429 C.2     1  ZINC000477669194    0.5600
     13 O13        -4.7429    0.1296   51.9326 O.2     1  ZINC000477669194   -0.5200
     14 C14        -6.9853    0.3342   52.5474 C.ar    1  ZINC000477669194   -0.1500
     15 C15        -7.4247   -0.8350   51.9191 C.ar    1  ZINC000477669194   -0.0600
     16 C16        -8.6718   -1.3412   52.2056 C.ar    1  ZINC000477669194   -0.1400
     17 C17        -9.4956   -0.6905   53.1200 C.ar    1  ZINC000477669194    0.1700
     18 N18       -10.7553   -1.2046   53.4074 N.am    1  ZINC000477669194   -1.0600
     19 S19       -11.2520   -2.6194   52.7046 S.o2    1  ZINC000477669194    2.6100
     20 C20       -12.9210   -2.8898   53.3619 C.3     1  ZINC000477669194   -0.6700
     21 O21       -11.3051   -2.3214   51.3162 O.2     1  ZINC000477669194   -0.9400
     22 O22       -10.3526   -3.5965   53.2103 O.2     1  ZINC000477669194   -0.9500
     23 C23        -9.0607    0.4736   53.7477 C.ar    1  ZINC000477669194   -0.1600
     24 C24        -7.8128    0.9822   53.4691 C.ar    1  ZINC000477669194   -0.0300
     25 C25        -3.8527    5.1247   54.8719 C.2     1  ZINC000477669194   -0.2600
     26 S26        -5.0854    5.4714   56.0819 S.3     1  ZINC000477669194    0.1500
     27 H27        -7.7855    4.6951   56.6654 H       1  ZINC000477669194    0.0800
     28 H28        -8.2802    4.4027   54.9807 H       1  ZINC000477669194    0.0900
     29 H29        -7.6782    3.0567   55.9779 H       1  ZINC000477669194    0.0900
     30 H30        -1.9235    5.0095   53.1484 H       1  ZINC000477669194    0.1300
     31 H31        -0.6748    4.1467   51.2135 H       1  ZINC000477669194    0.1300
     32 H32        -1.6469    2.3881   49.7967 H       1  ZINC000477669194    0.1300
     33 H33        -3.8754    1.4791   50.3019 H       1  ZINC000477669194    0.1500
     34 H34        -6.1546    2.8054   52.5560 H       1  ZINC000477669194    0.4200
     35 H35        -6.7863   -1.3401   51.2094 H       1  ZINC000477669194    0.1300
     36 H36        -9.0121   -2.2440   51.7203 H       1  ZINC000477669194    0.1400
     37 H37       -11.3429   -0.7346   54.0194 H       1  ZINC000477669194    0.4300
     38 H38       -13.5824   -2.0976   53.0110 H       1  ZINC000477669194    0.1300
     39 H39       -13.2951   -3.8542   53.0183 H       1  ZINC000477669194    0.1400
     40 H40       -12.8884   -2.8800   54.4514 H       1  ZINC000477669194    0.1300
     41 H41        -9.7020    0.9759   54.4569 H       1  ZINC000477669194    0.1700
     42 H42        -7.4760    1.8851   53.9566 H       1  ZINC000477669194    0.1500
     43 H43        -2.8581    5.5442   54.8394 H       1  ZINC000477669194    0.1800
@<TRIPOS>BOND
     1     1     2    1
     2     1    27    1
     3     1    28    1
     4     1    29    1
     5     2    26    1
     6     2     3    2
     7     3     4    1
     8     4     5    1
     9     4    25    2
    10     5    10   ar
    11     5     6   ar
    12     6     7   ar
    13     6    30    1
    14     7     8   ar
    15     7    31    1
    16     8     9   ar
    17     8    32    1
    18     9    10   ar
    19     9    33    1
    20    10    11    1
    21    11    12   am
    22    11    34    1
    23    12    13    2
    24    12    14    1
    25    14    24   ar
    26    14    15   ar
    27    15    16   ar
    28    15    35    1
    29    16    17   ar
    30    16    36    1
    31    17    18    1
    32    17    23   ar
    33    18    19   am
    34    18    37    1
    35    19    20    1
    36    19    21    2
    37    19    22    2
    38    20    38    1
    39    20    39    1
    40    20    40    1
    41    23    24   ar
    42    23    41    1
    43    24    42    1
    44    25    26    1
    45    25    43    1
@<TRIPOS>SUBSTRUCTURE
     1 ZINC000477669194        1 TEMP              0 ****  ****    0 ROOT


##########                                Name:    ZINC001091652821
##########                DOCK_Rotatable_Bonds:                   4
##########                         Heavy_Atoms:                  24
##########                    Molecular_Weight:             345.465
##########                DOCK_Rotatable_Bonds:                   4
##########                       Formal_Charge:          -0.0199997
##########                     HBond_Acceptors:                   6
##########                        HBond_Donors:                   0
##########                         Heavy_Atoms:                  24
##########                          Grid_Score:          -27.758408
##########                     Grid_vdw_energy:          -27.075724
##########                      Grid_es_energy:           -0.682685
##########           Internal_energy_repulsive:            4.076485

@<TRIPOS>MOLECULE
ZINC001091652821
 47 50 1 0 0
SMALL
USER_CHARGES


@<TRIPOS>ATOM
      1 C1        -13.6923   -1.9592   59.6605 C.3     1  ZINC001091652821   -0.1000
      2 C2        -12.9438   -2.5723   58.5052 C.2     1  ZINC001091652821   -0.1200
      3 C3        -11.7334   -3.1250   58.6461 C.2     1  ZINC001091652821   -0.2400
      4 S4        -11.1600   -3.7268   57.1561 S.3     1  ZINC001091652821    0.2100
      5 C5        -12.6203   -3.2038   56.3280 C.2     1  ZINC001091652821   -0.2700
      6 C6        -12.8981   -3.3817   54.8998 C.2     1  ZINC001091652821    0.6100
      7 O7        -13.1055   -4.4951   54.4543 O.2     1  ZINC001091652821   -0.5200
      8 N8        -12.9237   -2.3122   54.0800 N.am    1  ZINC001091652821   -0.6200
      9 C9        -12.6889   -0.9088   54.4570 C.3     1  ZINC001091652821    0.0900
     10 C10       -12.0499   -0.2316   53.2334 C.3     1  ZINC001091652821   -0.0900
     11 H11       -12.4238    0.7815   53.0849 H       1  ZINC001091652821    0.1100
     12 C12       -10.5145   -0.2664   53.3822 C.3     1  ZINC001091652821    0.0400
     13 N13       -10.0146   -0.6565   52.0391 N.3     1  ZINC001091652821   -0.5000
     14 C14        -8.6545   -1.2052   52.1224 C.3     1  ZINC001091652821    0.1200
     15 C15        -7.6548   -0.0784   52.0813 C.2     1  ZINC001091652821    0.0000
     16 C16        -6.7505    0.1442   51.1132 C.2     1  ZINC001091652821   -0.0800
     17 O17        -6.0590    1.2467   51.4623 O.3     1  ZINC001091652821   -0.2000
     18 C18        -6.5465    1.6813   52.6320 C.2     1  ZINC001091652821    0.1900
     19 C19        -6.0633    2.8916   53.3889 C.3     1  ZINC001091652821   -0.0600
     20 N20        -7.5111    0.8891   53.0042 N.2     1  ZINC001091652821   -0.4700
     21 C21       -10.9776   -1.6887   51.5774 C.3     1  ZINC001091652821    0.0400
     22 C22       -12.3801   -1.1583   52.0349 C.3     1  ZINC001091652821   -0.0700
     23 C23       -13.1214   -0.4443   50.9028 C.3     1  ZINC001091652821   -0.1300
     24 C24       -13.1858   -2.3202   52.6315 C.3     1  ZINC001091652821    0.1200
     25 C25       -13.4572   -2.6099   57.2304 C.2     1  ZINC001091652821   -0.0500
     26 H26       -14.3067   -2.7209   60.1406 H       1  ZINC001091652821    0.0700
     27 H27       -12.9809   -1.5581   60.3824 H       1  ZINC001091652821    0.0700
     28 H28       -14.3307   -1.1552   59.2942 H       1  ZINC001091652821    0.0700
     29 H29       -11.1914   -3.1822   59.5786 H       1  ZINC001091652821    0.1700
     30 H30       -13.6341   -0.4241   54.7017 H       1  ZINC001091652821    0.0800
     31 H31       -12.0108   -0.8588   55.3088 H       1  ZINC001091652821    0.0800
     32 H32       -10.1369    0.7186   53.6566 H       1  ZINC001091652821    0.0800
     33 H33       -10.2216   -1.0072   54.1263 H       1  ZINC001091652821    0.0500
     34 H34        -8.5419   -1.7569   53.0557 H       1  ZINC001091652821    0.0500
     35 H35        -8.4810   -1.8758   51.2808 H       1  ZINC001091652821    0.1000
     36 H36        -6.6049   -0.4493   50.2227 H       1  ZINC001091652821    0.2100
     37 H37        -5.2504    3.3644   52.8375 H       1  ZINC001091652821    0.0900
     38 H38        -6.8840    3.5996   53.5042 H       1  ZINC001091652821    0.1000
     39 H39        -5.7059    2.5863   54.3724 H       1  ZINC001091652821    0.1000
     40 H40       -10.9493   -1.7759   50.4913 H       1  ZINC001091652821    0.0900
     41 H41       -10.7565   -2.6495   52.0423 H       1  ZINC001091652821    0.0500
     42 H42       -13.2894   -1.1417   50.0821 H       1  ZINC001091652821    0.0600
     43 H43       -14.0799   -0.0782   51.2705 H       1  ZINC001091652821    0.0600
     44 H44       -12.5229    0.3953   50.5494 H       1  ZINC001091652821    0.0700
     45 H45       -12.8446   -3.2665   52.2115 H       1  ZINC001091652821    0.0900
     46 H46       -14.2479   -2.1818   52.4288 H       1  ZINC001091652821    0.0800
     47 H47       -14.4224   -2.2036   56.9668 H       1  ZINC001091652821    0.1500
@<TRIPOS>BOND
     1     1     2    1
     2     1    26    1
     3     1    27    1
     4     1    28    1
     5     2    25    1
     6     2     3    2
     7     3     4    1
     8     3    29    1
     9     4     5    1
    10     5     6    1
    11     5    25    2
    12     6     7    2
    13     6     8   am
    14     8    24    1
    15     8     9    1
    16     9    10    1
    17     9    30    1
    18     9    31    1
    19    10    11    1
    20    10    22    1
    21    10    12    1
    22    12    13    1
    23    12    32    1
    24    12    33    1
    25    13    14    1
    26    13    21    1
    27    14    15    1
    28    14    34    1
    29    14    35    1
    30    15    20    1
    31    15    16    2
    32    16    17    1
    33    16    36    1
    34    17    18    1
    35    18    19    1
    36    18    20    2
    37    19    37    1
    38    19    38    1
    39    19    39    1
    40    21    22    1
    41    21    40    1
    42    21    41    1
    43    22    23    1
    44    22    24    1
    45    23    42    1
    46    23    43    1
    47    23    44    1
    48    24    45    1
    49    24    46    1
    50    25    47    1
@<TRIPOS>SUBSTRUCTURE
     1 ZINC001091652821        1 TEMP              0 ****  ****    0 ROOT


##########                                Name:    ZINC001193456967
##########                DOCK_Rotatable_Bonds:                   3
##########                         Heavy_Atoms:                  27
##########                    Molecular_Weight:             392.451
##########                DOCK_Rotatable_Bonds:                   3
##########                       Formal_Charge:           0.0300002
##########                     HBond_Acceptors:                   8
##########                        HBond_Donors:                   0
##########                         Heavy_Atoms:                  27
##########                          Grid_Score:          -27.715923
##########                     Grid_vdw_energy:          -27.364851
##########                      Grid_es_energy:           -0.351072
##########           Internal_energy_repulsive:           37.430904

@<TRIPOS>MOLECULE
ZINC001193456967
 48 50 1 0 0
SMALL
USER_CHARGES


@<TRIPOS>ATOM
      1 C1         -6.3591   -0.1025   51.2809 C.3     1  ZINC001193456967   -0.1400
      2 C2         -7.7401   -0.3373   51.8363 C.ar    1  ZINC001193456967    0.0300
      3 C3         -8.1895   -1.6270   52.0492 C.ar    1  ZINC001193456967   -0.1400
      4 C4         -9.4566   -1.8422   52.5587 C.ar    1  ZINC001193456967    0.0300
      5 C5        -10.2737   -0.7679   52.8557 C.ar    1  ZINC001193456967   -0.6900
      6 S6        -11.8888   -1.0423   53.5045 S.o2    1  ZINC001193456967    2.7100
      7 O7        -12.3966    0.2336   53.8697 O.2     1  ZINC001193456967   -0.9300
      8 O8        -12.5469   -1.9081   52.5898 O.2     1  ZINC001193456967   -0.9400
      9 N9        -11.7129   -1.8961   54.9125 N.am    1  ZINC001193456967   -1.0000
     10 C10       -11.0896   -3.2262   55.0387 C.3     1  ZINC001193456967    0.1100
     11 C11       -11.7016   -3.8303   56.3272 C.3     1  ZINC001193456967   -0.1200
     12 C12       -11.8039   -2.5795   57.2395 C.3     1  ZINC001193456967   -0.0500
     13 H13       -10.8507   -2.3805   57.7294 H       1  ZINC001193456967    0.1000
     14 C14       -12.8996   -2.7518   58.2596 C.ar    1  ZINC001193456967   -0.0800
     15 C15       -12.7302   -2.2681   59.5437 C.ar    1  ZINC001193456967   -0.0800
     16 C16       -13.7343   -2.4257   60.4800 C.ar    1  ZINC001193456967   -0.1500
     17 C17       -14.9105   -3.0677   60.1317 C.ar    1  ZINC001193456967    0.1000
     18 F18       -15.8930   -3.2218   61.0461 F       1  ZINC001193456967   -0.1400
     19 C19       -15.0792   -3.5512   58.8453 C.ar    1  ZINC001193456967   -0.1500
     20 C20       -14.0757   -3.3883   57.9093 C.ar    1  ZINC001193456967   -0.0800
     21 C21       -12.1467   -1.4505   56.2447 C.3     1  ZINC001193456967    0.1900
     22 C22       -11.4095   -0.1688   56.6381 C.3     1  ZINC001193456967   -0.1800
     23 C23       -13.6568   -1.2043   56.2372 C.3     1  ZINC001193456967   -0.1800
     24 C24        -9.8239    0.5222   52.6440 C.ar    1  ZINC001193456967    0.0400
     25 C25        -8.5557    0.7376   52.1382 C.ar    1  ZINC001193456967   -0.0600
     26 N26        -8.0740    2.1187   51.9115 N.pl3   1  ZINC001193456967    0.0200
     27 O27        -6.9100    2.4016   52.1321 O.2     1  ZINC001193456967   -0.1400
     28 O28        -8.8416    2.9723   51.5045 O.2     1  ZINC001193456967   -0.1500
     29 H29        -5.6628    0.0736   52.1008 H       1  ZINC001193456967    0.1100
     30 H30        -6.0409   -0.9788   50.7160 H       1  ZINC001193456967    0.0900
     31 H31        -6.3746    0.7672   50.6241 H       1  ZINC001193456967    0.0800
     32 H32        -7.5509   -2.4664   51.8172 H       1  ZINC001193456967    0.1600
     33 H33        -9.8079   -2.8500   52.7245 H       1  ZINC001193456967    0.1600
     34 H34       -11.3365   -3.8442   54.1755 H       1  ZINC001193456967    0.0900
     35 H35       -10.0086   -3.1304   55.1410 H       1  ZINC001193456967    0.0700
     36 H36       -12.6873   -4.2523   56.1309 H       1  ZINC001193456967    0.0900
     37 H37       -11.0378   -4.5777   56.7617 H       1  ZINC001193456967    0.0900
     38 H38       -11.8126   -1.7674   59.8151 H       1  ZINC001193456967    0.1400
     39 H39       -13.6014   -2.0483   61.4832 H       1  ZINC001193456967    0.1400
     40 H40       -15.9962   -4.0525   58.5726 H       1  ZINC001193456967    0.1400
     41 H41       -14.2072   -3.7652   56.9057 H       1  ZINC001193456967    0.1300
     42 H42       -10.3346   -0.3483   56.6217 H       1  ZINC001193456967    0.0700
     43 H43       -11.6564    0.6237   55.9314 H       1  ZINC001193456967    0.0600
     44 H44       -11.7127    0.1314   57.6411 H       1  ZINC001193456967    0.0800
     45 H45       -13.9999   -1.0202   57.2553 H       1  ZINC001193456967    0.0800
     46 H46       -13.8804   -0.3371   55.6161 H       1  ZINC001193456967    0.0900
     47 H47       -14.1657   -2.0803   55.8351 H       1  ZINC001193456967    0.0700
     48 H48       -10.4623    1.3617   52.8764 H       1  ZINC001193456967    0.1600
@<TRIPOS>BOND
     1     1     2    1
     2     1    29    1
     3     1    30    1
     4     1    31    1
     5     2    25   ar
     6     2     3   ar
     7     3     4   ar
     8     3    32    1
     9     4     5   ar
    10     4    33    1
    11     5     6    1
    12     5    24   ar
    13     6     7    2
    14     6     8    2
    15     6     9   am
    16     9    21    1
    17     9    10    1
    18    10    11    1
    19    10    34    1
    20    10    35    1
    21    11    12    1
    22    11    36    1
    23    11    37    1
    24    12    13    1
    25    12    14    1
    26    12    21    1
    27    14    20   ar
    28    14    15   ar
    29    15    16   ar
    30    15    38    1
    31    16    17   ar
    32    16    39    1
    33    17    18    1
    34    17    19   ar
    35    19    20   ar
    36    19    40    1
    37    20    41    1
    38    21    22    1
    39    21    23    1
    40    22    42    1
    41    22    43    1
    42    22    44    1
    43    23    45    1
    44    23    46    1
    45    23    47    1
    46    24    25   ar
    47    24    48    1
    48    25    26    1
    49    26    27    2
    50    26    28    2
@<TRIPOS>SUBSTRUCTURE
     1 ZINC001193456967        1 TEMP              0 ****  ****    0 ROOT


##########                                Name:    ZINC000826324849
##########                DOCK_Rotatable_Bonds:                   4
##########                         Heavy_Atoms:                  27
##########                    Molecular_Weight:             395.374
##########                DOCK_Rotatable_Bonds:                   4
##########                       Formal_Charge:           0.0400001
##########                     HBond_Acceptors:                  13
##########                        HBond_Donors:                   1
##########                         Heavy_Atoms:                  27
##########                          Grid_Score:          -27.714489
##########                     Grid_vdw_energy:          -26.876377
##########                      Grid_es_energy:           -0.838111
##########           Internal_energy_repulsive:           85.073509

@<TRIPOS>MOLECULE
ZINC000826324849
 41 44 1 0 0
SMALL
USER_CHARGES


@<TRIPOS>ATOM
      1 C1          4.6149    1.3681   52.1740 C.3     1  ZINC000826324849   -0.0600
      2 C2          3.6390    0.8661   51.1412 C.2     1  ZINC000826324849    0.2000
      3 N3          3.4156    1.3878   49.9590 N.2     1  ZINC000826324849   -0.4600
      4 C4          2.4734    0.6125   49.3934 C.2     1  ZINC000826324849    0.1600
      5 C5          1.8718    0.7957   48.0239 C.3     1  ZINC000826324849    0.2200
      6 H6          2.5043    1.4561   47.4304 H       1  ZINC000826324849    0.1300
      7 C7          1.7492   -0.5645   47.3277 C.3     1  ZINC000826324849    0.0600
      8 O8          1.0117   -0.4070   46.1132 O.3     1  ZINC000826324849   -0.3600
      9 C9         -0.3331    0.0412   46.2990 C.3     1  ZINC000826324849    0.0400
     10 C10        -0.3170    1.4325   46.9424 C.3     1  ZINC000826324849    0.0800
     11 N11         0.5260    1.3777   48.1475 N.am    1  ZINC000826324849   -1.0100
     12 S12        -0.0244    1.9525   49.5998 S.o2    1  ZINC000826324849    2.7100
     13 O13        -1.2658    1.3053   49.8429 O.2     1  ZINC000826324849   -0.9300
     14 O14         1.0744    1.8892   50.4987 O.2     1  ZINC000826324849   -0.9300
     15 C15        -0.3892    3.6622   49.3795 C.ar    1  ZINC000826324849   -0.5800
     16 C16         0.1926    4.3652   48.3442 C.ar    1  ZINC000826324849   -0.0400
     17 C17        -0.0920    5.7077   48.1690 C.ar    1  ZINC000826324849   -0.0800
     18 C18        -0.9602    6.3540   49.0292 C.ar    1  ZINC000826324849   -0.1100
     19 C19        -1.5492    5.6600   50.0703 C.ar    1  ZINC000826324849    0.1300
     20 F20        -2.3979    6.2915   50.9106 F       1  ZINC000826324849   -0.1100
     21 C21        -1.2697    4.3048   50.2468 C.ar    1  ZINC000826324849    0.0500
     22 C22        -1.8987    3.5533   51.3617 C.2     1  ZINC000826324849    0.1800
     23 N23        -3.0577    2.9259   51.3332 N.2     1  ZINC000826324849   -0.2600
     24 N24        -3.2489    2.3981   52.4933 N.pl3   1  ZINC000826324849   -0.2200
     25 N25        -2.2482    2.6711   53.2556 N.2     1  ZINC000826324849   -0.0200
     26 N26        -1.3960    3.3758   52.5917 N.2     1  ZINC000826324849   -0.2600
     27 N27         2.1772   -0.3237   50.2445 N.2     1  ZINC000826324849   -0.3800
     28 O28         2.8399   -0.1994   51.2529 O.3     1  ZINC000826324849    0.0900
     29 H29         4.5784    0.7235   53.0521 H       1  ZINC000826324849    0.1000
     30 H30         5.6221    1.3579   51.7574 H       1  ZINC000826324849    0.1100
     31 H31         4.3501    2.3862   52.4595 H       1  ZINC000826324849    0.1100
     32 H32         2.7438   -0.9492   47.1024 H       1  ZINC000826324849    0.1200
     33 H33         1.2277   -1.2628   47.9823 H       1  ZINC000826324849    0.0600
     34 H34        -0.8365    0.0924   45.3335 H       1  ZINC000826324849    0.1200
     35 H35        -0.8622   -0.6548   46.9499 H       1  ZINC000826324849    0.0600
     36 H36         0.0944    2.1572   46.2398 H       1  ZINC000826324849    0.0900
     37 H37        -1.3314    1.7217   47.2169 H       1  ZINC000826324849    0.1100
     38 H38         0.8722    3.8661   47.6692 H       1  ZINC000826324849    0.1400
     39 H39         0.3660    6.2531   47.3571 H       1  ZINC000826324849    0.1500
     40 H40        -1.1782    7.4023   48.8882 H       1  ZINC000826324849    0.1500
     41 H41        -4.0253    1.8773   52.7516 H       1  ZINC000826324849    0.4800
@<TRIPOS>BOND
     1     1     2    1
     2     1    29    1
     3     1    30    1
     4     1    31    1
     5     2    28    1
     6     2     3    2
     7     3     4    1
     8     4     5    1
     9     4    27    2
    10     5     6    1
    11     5    11    1
    12     5     7    1
    13     7     8    1
    14     7    32    1
    15     7    33    1
    16     8     9    1
    17     9    10    1
    18     9    34    1
    19     9    35    1
    20    10    11    1
    21    10    36    1
    22    10    37    1
    23    11    12   am
    24    12    13    2
    25    12    14    2
    26    12    15    1
    27    15    21   ar
    28    15    16   ar
    29    16    17   ar
    30    16    38    1
    31    17    18   ar
    32    17    39    1
    33    18    19   ar
    34    18    40    1
    35    19    20    1
    36    19    21   ar
    37    21    22    1
    38    22    26    1
    39    22    23    2
    40    23    24    1
    41    24    25    1
    42    24    41    1
    43    25    26    2
    44    27    28    1
@<TRIPOS>SUBSTRUCTURE
     1 ZINC000826324849        1 TEMP              0 ****  ****    0 ROOT


##########                                Name:    ZINC000458730620
##########                DOCK_Rotatable_Bonds:                   9
##########                         Heavy_Atoms:                  25
##########                    Molecular_Weight:              375.44
##########                DOCK_Rotatable_Bonds:                   9
##########                       Formal_Charge:        -1.86265e-07
##########                     HBond_Acceptors:                   9
##########                        HBond_Donors:                   3
##########                         Heavy_Atoms:                  25
##########                          Grid_Score:          -27.706465
##########                     Grid_vdw_energy:          -28.078320
##########                      Grid_es_energy:            0.371854
##########           Internal_energy_repulsive:           70.693047

@<TRIPOS>MOLECULE
ZINC000458730620
 48 49 1 0 0
SMALL
USER_CHARGES


@<TRIPOS>ATOM
      1 C1         -5.2986    5.8841   54.1139 C.3     1  ZINC000458730620   -0.1600
      2 C2         -4.7465    4.4778   53.8719 C.3     1  ZINC000458730620    0.2000
      3 C3         -5.9078    3.4986   53.6889 C.3     1  ZINC000458730620   -0.1600
      4 N4         -3.9152    4.4804   52.6656 N.am    1  ZINC000458730620   -0.7400
      5 C5         -3.4616    3.3175   52.1572 C.2     1  ZINC000458730620    0.7100
      6 O6         -3.7411    2.2663   52.7006 O.2     1  ZINC000458730620   -0.5800
      7 N7         -2.6983    3.3198   51.0465 N.am    1  ZINC000458730620   -0.7500
      8 C8         -2.2067    2.0557   50.4930 C.3     1  ZINC000458730620    0.1300
      9 C9         -1.3118    2.3414   49.2852 C.3     1  ZINC000458730620    0.1000
     10 N10        -0.9646    1.0803   48.6255 N.am    1  ZINC000458730620   -1.1100
     11 S11        -0.9449    0.9889   46.9720 S.o2    1  ZINC000458730620    2.7000
     12 O12        -0.4310   -0.2955   46.6474 O.2     1  ZINC000458730620   -0.9400
     13 O13        -2.2128    1.4533   46.5294 O.2     1  ZINC000458730620   -0.9400
     14 C14         0.2414    2.1589   46.3991 C.ar    1  ZINC000458730620   -0.7300
     15 C15        -0.1142    3.0917   45.4435 C.ar    1  ZINC000458730620    0.0400
     16 C16         0.8153    4.0105   44.9935 C.ar    1  ZINC000458730620   -0.1800
     17 C17         2.1038    3.9972   45.4998 C.ar    1  ZINC000458730620    0.1900
     18 F18         3.0120    4.8957   45.0601 F       1  ZINC000458730620   -0.1200
     19 C19         2.4612    3.0633   46.4572 C.ar    1  ZINC000458730620   -0.2100
     20 C20         1.5283    2.1471   46.9108 C.ar    1  ZINC000458730620    0.2200
     21 F21         1.8757    1.2352   47.8450 F       1  ZINC000458730620   -0.1100
     22 C22        -3.9014    4.0480   55.0727 C.3     1  ZINC000458730620   -0.1100
     23 C23        -2.4879    3.5756   54.6937 C.3     1  ZINC000458730620   -0.1400
     24 C24        -1.9889    4.3214   55.9425 C.3     1  ZINC000458730620   -0.1400
     25 C25        -3.2279    5.2215   55.8036 C.3     1  ZINC000458730620   -0.1400
     26 H26        -5.9662    5.8690   54.9754 H       1  ZINC000458730620    0.0600
     27 H27        -4.4736    6.5702   54.3055 H       1  ZINC000458730620    0.0500
     28 H28        -5.8491    6.2148   53.2333 H       1  ZINC000458730620    0.0800
     29 H29        -6.5099    3.8048   52.8335 H       1  ZINC000458730620    0.0800
     30 H30        -5.5145    2.4967   53.5164 H       1  ZINC000458730620    0.0500
     31 H31        -6.5263    3.4966   54.5865 H       1  ZINC000458730620    0.0600
     32 H32        -3.6913    5.3190   52.2327 H       1  ZINC000458730620    0.3900
     33 H33        -2.4743    4.1585   50.6137 H       1  ZINC000458730620    0.4000
     34 H34        -1.6329    1.5250   51.2527 H       1  ZINC000458730620    0.0800
     35 H35        -3.0521    1.4421   50.1815 H       1  ZINC000458730620    0.0800
     36 H36        -1.8431    2.9844   48.5834 H       1  ZINC000458730620    0.0900
     37 H37        -0.4015    2.8404   49.6175 H       1  ZINC000458730620    0.0700
     38 H38        -0.7461    0.2990   49.1570 H       1  ZINC000458730620    0.4300
     39 H39        -1.1190    3.1026   45.0478 H       1  ZINC000458730620    0.1700
     40 H40         0.5364    4.7388   44.2464 H       1  ZINC000458730620    0.1600
     41 H41         3.4661    3.0521   46.8526 H       1  ZINC000458730620    0.1600
     42 H42        -4.4281    3.3638   55.7379 H       1  ZINC000458730620    0.1100
     43 H43        -2.3589    2.4948   54.7500 H       1  ZINC000458730620    0.0700
     44 H44        -2.1226    3.9983   53.7576 H       1  ZINC000458730620    0.0800
     45 H45        -1.9916    3.7111   56.8457 H       1  ZINC000458730620    0.0800
     46 H46        -1.0470    4.8483   55.7892 H       1  ZINC000458730620    0.0700
     47 H47        -3.0650    6.0942   55.1711 H       1  ZINC000458730620    0.0800
     48 H48        -3.6965    5.4694   56.7560 H       1  ZINC000458730620    0.0700
@<TRIPOS>BOND
     1     1     2    1
     2     1    26    1
     3     1    27    1
     4     1    28    1
     5     2     3    1
     6     2     4    1
     7     2    22    1
     8     3    29    1
     9     3    30    1
    10     3    31    1
    11     4     5   am
    12     4    32    1
    13     5     6    2
    14     5     7   am
    15     7     8    1
    16     7    33    1
    17     8     9    1
    18     8    34    1
    19     8    35    1
    20     9    10    1
    21     9    36    1
    22     9    37    1
    23    10    11   am
    24    10    38    1
    25    11    12    2
    26    11    13    2
    27    11    14    1
    28    14    20   ar
    29    14    15   ar
    30    15    16   ar
    31    15    39    1
    32    16    17   ar
    33    16    40    1
    34    17    18    1
    35    17    19   ar
    36    19    20   ar
    37    19    41    1
    38    20    21    1
    39    22    25    1
    40    22    23    1
    41    22    42    1
    42    23    24    1
    43    23    43    1
    44    23    44    1
    45    24    25    1
    46    24    45    1
    47    24    46    1
    48    25    47    1
    49    25    48    1
@<TRIPOS>SUBSTRUCTURE
     1 ZINC000458730620        1 TEMP              0 ****  ****    0 ROOT


##########                                Name:    ZINC000001174632
##########                DOCK_Rotatable_Bonds:                   6
##########                         Heavy_Atoms:                  29
##########                    Molecular_Weight:             385.419
##########                DOCK_Rotatable_Bonds:                   6
##########                       Formal_Charge:           0.0400005
##########                     HBond_Acceptors:                   5
##########                        HBond_Donors:                   1
##########                         Heavy_Atoms:                  29
##########                          Grid_Score:          -27.697092
##########                     Grid_vdw_energy:          -26.693541
##########                      Grid_es_energy:           -1.003552
##########           Internal_energy_repulsive:           12.886749

@<TRIPOS>MOLECULE
ZINC000001174632
 48 51 1 0 0
SMALL
USER_CHARGES


@<TRIPOS>ATOM
      1 C1         -9.3356    1.0544   58.3355 C.3     1  ZINC000001174632    0.0400
      2 O2        -10.6346    1.6516   58.0830 O.3     1  ZINC000001174632   -0.3500
      3 C3        -11.6930    0.8184   58.0393 C.2     1  ZINC000001174632    0.5200
      4 O4        -12.8111    1.2647   57.8744 O.2     1  ZINC000001174632   -0.5200
      5 C5        -11.4942   -0.6337   58.1914 C.ar    1  ZINC000001174632   -0.2000
      6 C6        -11.6571   -1.2386   59.4400 C.ar    1  ZINC000001174632   -0.0200
      7 C7        -11.4702   -2.5974   59.5754 C.ar    1  ZINC000001174632   -0.1800
      8 C8        -11.1210   -3.3691   58.4788 C.ar    1  ZINC000001174632   -0.0300
      9 C9        -10.9558   -2.7868   57.2383 C.ar    1  ZINC000001174632   -0.1900
     10 C10       -11.1455   -1.4196   57.0805 C.ar    1  ZINC000001174632    0.2600
     11 N11       -10.9803   -0.8312   55.8335 N.pl3   1  ZINC000001174632   -0.6500
     12 C12       -11.6213   -1.3524   54.7392 C.2     1  ZINC000001174632    0.2300
     13 C13       -11.0783   -1.4695   53.4740 C.2     1  ZINC000001174632   -0.1800
     14 C14        -9.7148   -1.0558   53.0747 C.ar    1  ZINC000001174632   -0.0600
     15 C15        -9.2389    0.2104   53.4187 C.ar    1  ZINC000001174632   -0.0600
     16 C16        -7.9675    0.5921   53.0446 C.ar    1  ZINC000001174632   -0.1500
     17 C17        -7.1617   -0.2808   52.3266 C.ar    1  ZINC000001174632    0.1400
     18 O18        -5.9091    0.0994   51.9597 O.3     1  ZINC000001174632   -0.3200
     19 C19        -5.7358    1.4595   51.5568 C.3     1  ZINC000001174632    0.0300
     20 C20        -7.6313   -1.5410   51.9825 C.ar    1  ZINC000001174632   -0.2100
     21 C21        -8.8991   -1.9327   52.3581 C.ar    1  ZINC000001174632   -0.0500
     22 C22       -12.0854   -2.0752   52.5937 C.2     1  ZINC000001174632    0.4500
     23 O23       -11.9547   -2.3276   51.4119 O.2     1  ZINC000001174632   -0.4100
     24 C24       -13.2968   -2.3222   53.4234 C.ar    1  ZINC000001174632   -0.1600
     25 C25       -14.5358   -2.8638   53.1369 C.ar    1  ZINC000001174632   -0.0500
     26 C26       -15.4945   -2.9705   54.1396 C.ar    1  ZINC000001174632   -0.1100
     27 C27       -15.2133   -2.5377   55.4173 C.ar    1  ZINC000001174632   -0.0900
     28 C28       -13.9708   -1.9915   55.7168 C.ar    1  ZINC000001174632   -0.0800
     29 C29       -13.0044   -1.8855   54.7275 C.ar    1  ZINC000001174632   -0.0600
     30 H30        -9.1083    0.3334   57.5502 H       1  ZINC000001174632    0.0700
     31 H31        -8.5732    1.8333   58.3451 H       1  ZINC000001174632    0.1100
     32 H32        -9.3497    0.5480   59.3007 H       1  ZINC000001174632    0.0700
     33 H33       -11.9288   -0.6421   60.2983 H       1  ZINC000001174632    0.1400
     34 H34       -11.5962   -3.0632   60.5417 H       1  ZINC000001174632    0.1300
     35 H35       -10.9768   -4.4330   58.5954 H       1  ZINC000001174632    0.1300
     36 H36       -10.6829   -3.3951   56.3887 H       1  ZINC000001174632    0.1300
     37 H37       -10.4116   -0.0515   55.7366 H       1  ZINC000001174632    0.4300
     38 H38        -9.8655    0.8903   53.9768 H       1  ZINC000001174632    0.1300
     39 H39        -7.5986    1.5716   53.3104 H       1  ZINC000001174632    0.1300
     40 H40        -6.3691    1.6664   50.6942 H       1  ZINC000001174632    0.0600
     41 H41        -6.0136    2.1199   52.3783 H       1  ZINC000001174632    0.0600
     42 H42        -4.6925    1.6295   51.2908 H       1  ZINC000001174632    0.1000
     43 H43        -7.0014   -2.2170   51.4235 H       1  ZINC000001174632    0.1300
     44 H44        -9.2636   -2.9135   52.0904 H       1  ZINC000001174632    0.1300
     45 H45       -14.7595   -3.2033   52.1364 H       1  ZINC000001174632    0.1400
     46 H46       -16.4627   -3.3937   53.9157 H       1  ZINC000001174632    0.1400
     47 H47       -15.9627   -2.6231   56.1902 H       1  ZINC000001174632    0.1400
     48 H48       -13.7564   -1.6541   56.7201 H       1  ZINC000001174632    0.1300
@<TRIPOS>BOND
     1     1     2    1
     2     1    30    1
     3     1    31    1
     4     1    32    1
     5     2     3    1
     6     3     4    2
     7     3     5    1
     8     5    10   ar
     9     5     6   ar
    10     6     7   ar
    11     6    33    1
    12     7     8   ar
    13     7    34    1
    14     8     9   ar
    15     8    35    1
    16     9    10   ar
    17     9    36    1
    18    10    11    1
    19    11    12    1
    20    11    37    1
    21    12    29    1
    22    12    13    2
    23    13    14    1
    24    13    22    1
    25    14    21   ar
    26    14    15   ar
    27    15    16   ar
    28    15    38    1
    29    16    17   ar
    30    16    39    1
    31    17    18    1
    32    17    20   ar
    33    18    19    1
    34    19    40    1
    35    19    41    1
    36    19    42    1
    37    20    21   ar
    38    20    43    1
    39    21    44    1
    40    22    23    2
    41    22    24    1
    42    24    29   ar
    43    24    25   ar
    44    25    26   ar
    45    25    45    1
    46    26    27   ar
    47    26    46    1
    48    27    28   ar
    49    27    47    1
    50    28    29   ar
    51    28    48    1
@<TRIPOS>SUBSTRUCTURE
     1 ZINC000001174632        1 TEMP              0 ****  ****    0 ROOT


##########                                Name:    ZINC000599228306
##########                DOCK_Rotatable_Bonds:                   8
##########                         Heavy_Atoms:                  25
##########                    Molecular_Weight:             379.382
##########                DOCK_Rotatable_Bonds:                   8
##########                       Formal_Charge:        -4.09782e-08
##########                     HBond_Acceptors:                  10
##########                        HBond_Donors:                   1
##########                         Heavy_Atoms:                  25
##########                          Grid_Score:          -27.673086
##########                     Grid_vdw_energy:          -26.865004
##########                      Grid_es_energy:           -0.808083
##########           Internal_energy_repulsive:           35.223930

@<TRIPOS>MOLECULE
ZINC000599228306
 44 44 1 0 0
SMALL
USER_CHARGES


@<TRIPOS>ATOM
      1 C1        -14.3943   -5.5858   56.6757 C.3     1  ZINC000599228306    0.0400
      2 O2        -13.8885   -4.4591   55.9120 O.3     1  ZINC000599228306   -0.3500
      3 C3        -12.8120   -3.8182   56.4076 C.2     1  ZINC000599228306    0.5100
      4 O4        -12.2768   -4.2231   57.4203 O.2     1  ZINC000599228306   -0.4800
      5 C5        -12.2831   -2.6242   55.7203 C.ar    1  ZINC000599228306   -0.1500
      6 C6        -12.1844   -1.4087   56.4012 C.ar    1  ZINC000599228306   -0.0100
      7 C7        -11.6885   -0.2955   55.7517 C.ar    1  ZINC000599228306    0.0700
      8 F8        -11.5924    0.8809   56.4091 F       1  ZINC000599228306   -0.1200
      9 C9        -11.2886   -0.3820   54.4273 C.ar    1  ZINC000599228306    0.0100
     10 C10       -11.3833   -1.5815   53.7466 C.ar    1  ZINC000599228306   -0.7100
     11 S11       -10.8714   -1.6796   52.0634 S.o2    1  ZINC000599228306    2.7000
     12 O12       -10.2271   -2.9372   51.9127 O.2     1  ZINC000599228306   -0.9200
     13 O13       -11.9877   -1.2794   51.2805 O.2     1  ZINC000599228306   -0.9300
     14 N14        -9.7045   -0.5263   51.8379 N.am    1  ZINC000599228306   -1.1000
     15 C15        -8.4689   -0.5711   52.6236 C.3     1  ZINC000599228306    0.1600
     16 H16        -8.6662   -1.0472   53.5841 H       1  ZINC000599228306    0.1300
     17 C17        -7.4105   -1.3737   51.8644 C.3     1  ZINC000599228306   -0.1700
     18 C18        -7.9677    0.8317   52.8519 C.2     1  ZINC000599228306    0.4700
     19 O19        -7.9597    1.6260   51.9414 O.2     1  ZINC000599228306   -0.4900
     20 O20        -7.5300    1.1987   54.0665 O.3     1  ZINC000599228306   -0.3400
     21 C21        -7.3314    2.6188   54.2944 C.3     1  ZINC000599228306    0.1200
     22 C22        -6.1901    3.1228   53.4089 C.3     1  ZINC000599228306   -0.1900
     23 C23        -8.6160    3.3752   53.9503 C.3     1  ZINC000599228306   -0.1400
     24 C24        -6.9788    2.8551   55.7645 C.3     1  ZINC000599228306   -0.1800
     25 C25       -11.8728   -2.7057   54.3853 C.ar    1  ZINC000599228306    0.2500
     26 F26       -11.9642   -3.8774   53.7190 F       1  ZINC000599228306   -0.0900
     27 H27       -15.2600   -6.0101   56.1672 H       1  ZINC000599228306    0.1100
     28 H28       -13.6163   -6.3442   56.7630 H       1  ZINC000599228306    0.0700
     29 H29       -14.6862   -5.2487   57.6704 H       1  ZINC000599228306    0.0700
     30 H30       -12.4955   -1.3395   57.4331 H       1  ZINC000599228306    0.1700
     31 H31       -10.9016    0.4920   53.9246 H       1  ZINC000599228306    0.1800
     32 H32        -9.8391    0.1787   51.1855 H       1  ZINC000599228306    0.4300
     33 H33        -6.4911   -1.4070   52.4491 H       1  ZINC000599228306    0.0900
     34 H34        -7.7730   -2.3883   51.6994 H       1  ZINC000599228306    0.0700
     35 H35        -7.2132   -0.8976   50.9040 H       1  ZINC000599228306    0.0800
     36 H36        -6.4412    2.9545   52.3616 H       1  ZINC000599228306    0.0600
     37 H37        -6.0409    4.1889   53.5800 H       1  ZINC000599228306    0.0700
     38 H38        -5.2747    2.5839   53.6541 H       1  ZINC000599228306    0.0800
     39 H39        -9.4291    3.0162   54.5811 H       1  ZINC000599228306    0.0700
     40 H40        -8.4669    4.4413   54.1213 H       1  ZINC000599228306    0.0800
     41 H41        -8.8672    3.2069   52.9030 H       1  ZINC000599228306    0.0700
     42 H42        -6.0635    2.3163   56.0096 H       1  ZINC000599228306    0.0800
     43 H43        -6.8297    3.9212   55.9355 H       1  ZINC000599228306    0.0700
     44 H44        -7.7919    2.4960   56.3953 H       1  ZINC000599228306    0.0600
@<TRIPOS>BOND
     1     1     2    1
     2     1    27    1
     3     1    28    1
     4     1    29    1
     5     2     3    1
     6     3     4    2
     7     3     5    1
     8     5    25   ar
     9     5     6   ar
    10     6     7   ar
    11     6    30    1
    12     7     8    1
    13     7     9   ar
    14     9    10   ar
    15     9    31    1
    16    10    11    1
    17    10    25   ar
    18    11    12    2
    19    11    13    2
    20    11    14   am
    21    14    15    1
    22    14    32    1
    23    15    16    1
    24    15    17    1
    25    15    18    1
    26    17    33    1
    27    17    34    1
    28    17    35    1
    29    18    19    2
    30    18    20    1
    31    20    21    1
    32    21    22    1
    33    21    23    1
    34    21    24    1
    35    22    36    1
    36    22    37    1
    37    22    38    1
    38    23    39    1
    39    23    40    1
    40    23    41    1
    41    24    42    1
    42    24    43    1
    43    24    44    1
    44    25    26    1
@<TRIPOS>SUBSTRUCTURE
     1 ZINC000599228306        1 TEMP              0 ****  ****    0 ROOT


##########                                Name:    ZINC001135312623
##########                DOCK_Rotatable_Bonds:                   3
##########                         Heavy_Atoms:                  25
##########                    Molecular_Weight:             341.323
##########                DOCK_Rotatable_Bonds:                   3
##########                       Formal_Charge:        -1.78814e-07
##########                     HBond_Acceptors:                   8
##########                        HBond_Donors:                   2
##########                         Heavy_Atoms:                  25
##########                          Grid_Score:          -27.664934
##########                     Grid_vdw_energy:          -27.066572
##########                      Grid_es_energy:           -0.598362
##########           Internal_energy_repulsive:            7.386767

@<TRIPOS>MOLECULE
ZINC001135312623
 40 42 1 0 0
SMALL
USER_CHARGES


@<TRIPOS>ATOM
      1 C1         -0.8589    1.6563   49.3033 C.3     1  ZINC001135312623   -0.1300
      2 C2         -0.3110    2.4660   50.4501 C.ar    1  ZINC001135312623   -0.0600
      3 C3          0.9104    3.0983   50.3283 C.ar    1  ZINC001135312623   -0.1000
      4 C4          1.4142    3.8413   51.3805 C.ar    1  ZINC001135312623   -0.0300
      5 C5          2.7477    4.5301   51.2441 C.3     1  ZINC001135312623   -0.1300
      6 C6          0.6968    3.9540   52.5571 C.ar    1  ZINC001135312623   -0.0200
      7 N7          1.2397    4.7501   53.6806 N.pl3   1  ZINC001135312623    0.0200
      8 O8          1.0464    4.3935   54.8291 O.2     1  ZINC001135312623   -0.1500
      9 O9          1.8799    5.7618   53.4567 O.2     1  ZINC001135312623   -0.1500
     10 C10        -0.5261    3.3247   52.6850 C.ar    1  ZINC001135312623   -0.0700
     11 C11        -1.0370    2.5819   51.6288 C.ar    1  ZINC001135312623    0.1500
     12 N12        -2.2748    1.9436   51.7550 N.am    1  ZINC001135312623   -0.6600
     13 C13        -3.3578    2.6446   52.1454 C.2     1  ZINC001135312623    0.5600
     14 O14        -3.2585    3.8320   52.3879 O.2     1  ZINC001135312623   -0.5000
     15 C15        -4.6639    1.9711   52.2786 C.ar    1  ZINC001135312623   -0.1600
     16 C16        -5.7027    2.5906   52.9786 C.ar    1  ZINC001135312623   -0.0400
     17 C17        -6.9217    1.9610   53.1032 C.ar    1  ZINC001135312623   -0.1500
     18 C18        -7.1172    0.7102   52.5318 C.ar    1  ZINC001135312623    0.2000
     19 N19        -8.3426    0.0537   52.6487 N.am    1  ZINC001135312623   -0.6700
     20 C20        -8.4228   -1.2637   52.3742 C.2     1  ZINC001135312623    0.6600
     21 O21        -9.4956   -1.8288   52.4526 O.2     1  ZINC001135312623   -0.4900
     22 O22        -7.3297   -1.9603   52.0142 O.3     1  ZINC001135312623   -0.3400
     23 C23        -6.3278   -1.2666   51.2210 C.3     1  ZINC001135312623    0.1100
     24 C24        -6.0830    0.0908   51.8316 C.ar    1  ZINC001135312623   -0.1800
     25 C25        -4.8663    0.7139   51.6993 C.ar    1  ZINC001135312623    0.0000
     26 H26        -1.4569    2.2992   48.6575 H       1  ZINC001135312623    0.0900
     27 H27        -0.0338    1.2326   48.7307 H       1  ZINC001135312623    0.0800
     28 H28        -1.4823    0.8511   49.6922 H       1  ZINC001135312623    0.0700
     29 H29         1.4732    3.0123   49.4106 H       1  ZINC001135312623    0.1500
     30 H30         2.6085    5.5000   50.7668 H       1  ZINC001135312623    0.0900
     31 H31         3.1867    4.6706   52.2318 H       1  ZINC001135312623    0.0800
     32 H32         3.4123    3.9174   50.6349 H       1  ZINC001135312623    0.0800
     33 H33        -1.0859    3.4131   53.6044 H       1  ZINC001135312623    0.1700
     34 H34        -2.3542    0.9964   51.5616 H       1  ZINC001135312623    0.4200
     35 H35        -5.5497    3.5633   53.4225 H       1  ZINC001135312623    0.1400
     36 H36        -7.7244    2.4393   53.6447 H       1  ZINC001135312623    0.1500
     37 H37        -9.1328    0.5427   52.9264 H       1  ZINC001135312623    0.4300
     38 H38        -5.4007   -1.8398   51.2204 H       1  ZINC001135312623    0.1300
     39 H39        -6.6880   -1.1483   50.1990 H       1  ZINC001135312623    0.1000
     40 H40        -4.0676    0.2335   51.1536 H       1  ZINC001135312623    0.1500
@<TRIPOS>BOND
     1     1     2    1
     2     1    26    1
     3     1    27    1
     4     1    28    1
     5     2    11   ar
     6     2     3   ar
     7     3     4   ar
     8     3    29    1
     9     4     5    1
    10     4     6   ar
    11     5    30    1
    12     5    31    1
    13     5    32    1
    14     6     7    1
    15     6    10   ar
    16     7     8    2
    17     7     9    2
    18    10    11   ar
    19    10    33    1
    20    11    12    1
    21    12    13   am
    22    12    34    1
    23    13    14    2
    24    13    15    1
    25    15    25   ar
    26    15    16   ar
    27    16    17   ar
    28    16    35    1
    29    17    18   ar
    30    17    36    1
    31    18    24   ar
    32    18    19    1
    33    19    20   am
    34    19    37    1
    35    20    21    2
    36    20    22    1
    37    22    23    1
    38    23    24    1
    39    23    38    1
    40    23    39    1
    41    24    25   ar
    42    25    40    1
@<TRIPOS>SUBSTRUCTURE
     1 ZINC001135312623        1 TEMP              0 ****  ****    0 ROOT


##########                                Name:    ZINC001341052241
##########                DOCK_Rotatable_Bonds:                   7
##########                         Heavy_Atoms:                  24
##########                    Molecular_Weight:             336.478
##########                DOCK_Rotatable_Bonds:                   7
##########                       Formal_Charge:         5.96046e-08
##########                     HBond_Acceptors:                   6
##########                        HBond_Donors:                   0
##########                         Heavy_Atoms:                  24
##########                          Grid_Score:          -27.646343
##########                     Grid_vdw_energy:          -26.006046
##########                      Grid_es_energy:           -1.640296
##########           Internal_energy_repulsive:           14.186570

@<TRIPOS>MOLECULE
ZINC001341052241
 56 58 1 0 0
SMALL
USER_CHARGES


@<TRIPOS>ATOM
      1 C1         -9.6884    1.4442   59.5948 C.3     1  ZINC001341052241   -0.1700
      2 C2         -9.1967    0.0280   59.9006 C.3     1  ZINC001341052241    0.1100
      3 N3        -10.2542   -0.7186   60.5864 N.pl3   1  ZINC001341052241   -0.4500
      4 C4        -10.4346   -0.8432   61.9361 C.2     1  ZINC001341052241    0.1800
      5 C5         -9.5752   -0.2314   63.0124 C.3     1  ZINC001341052241    0.1500
      6 O6        -10.3766    0.0426   64.1634 O.3     1  ZINC001341052241   -0.3700
      7 C7         -9.6306    0.4864   65.2986 C.3     1  ZINC001341052241    0.0900
      8 C8         -8.7536    1.6749   64.8996 C.3     1  ZINC001341052241   -0.1400
      9 C9         -7.9550    2.1501   66.1150 C.3     1  ZINC001341052241   -0.1200
     10 C10        -7.0692    1.0097   66.6209 C.3     1  ZINC001341052241   -0.1200
     11 C11        -7.9463   -0.1787   67.0198 C.3     1  ZINC001341052241   -0.1200
     12 C12        -8.7448   -0.6540   65.8044 C.3     1  ZINC001341052241   -0.1200
     13 N13       -11.4877   -1.5883   62.1192 N.2     1  ZINC001341052241   -0.2600
     14 N14       -11.9845   -1.9355   60.9858 N.2     1  ZINC001341052241   -0.3100
     15 C15       -11.2634   -1.4343   60.0107 C.2     1  ZINC001341052241    0.3500
     16 N16       -11.4878   -1.5963   58.6530 N.3     1  ZINC001341052241   -0.4600
     17 C17       -10.7337   -2.7417   58.1279 C.3     1  ZINC001341052241    0.0700
     18 C18       -10.8892   -2.8025   56.6066 C.3     1  ZINC001341052241   -0.1100
     19 C19       -12.3732   -2.9403   56.2554 C.3     1  ZINC001341052241   -0.0900
     20 C20       -12.5407   -2.9403   54.7345 C.3     1  ZINC001341052241    0.0700
     21 O21       -11.9214   -4.1061   54.1871 O.3     1  ZINC001341052241   -0.3900
     22 C22       -11.9672   -4.1730   52.7604 C.3     1  ZINC001341052241    0.0300
     23 C23       -13.1432   -1.7604   56.8549 C.3     1  ZINC001341052241   -0.1100
     24 C24       -12.9223   -1.7299   58.3689 C.3     1  ZINC001341052241    0.0700
     25 H25       -10.5758    1.3924   58.9640 H       1  ZINC001341052241    0.0600
     26 H26        -9.9343    1.9527   60.5269 H       1  ZINC001341052241    0.0700
     27 H27        -8.9051    1.9965   59.0754 H       1  ZINC001341052241    0.0800
     28 H28        -8.3153    0.0796   60.5399 H       1  ZINC001341052241    0.0900
     29 H29        -8.9409   -0.4769   58.9692 H       1  ZINC001341052241    0.1000
     30 H30        -8.7795   -0.9263   63.2808 H       1  ZINC001341052241    0.0900
     31 H31        -9.1382    0.6969   62.6444 H       1  ZINC001341052241    0.0700
     32 H32       -10.3176    0.7906   66.0884 H       1  ZINC001341052241    0.0600
     33 H33        -8.0667    1.3707   64.1098 H       1  ZINC001341052241    0.0700
     34 H34        -9.3846    2.4873   64.5393 H       1  ZINC001341052241    0.0700
     35 H35        -8.6418    2.4544   66.9048 H       1  ZINC001341052241    0.0600
     36 H36        -7.3301    2.9968   65.8307 H       1  ZINC001341052241    0.0700
     37 H37        -6.5002    1.3483   67.4868 H       1  ZINC001341052241    0.0600
     38 H38        -6.3824    0.7054   65.8311 H       1  ZINC001341052241    0.0600
     39 H39        -8.6331    0.1255   67.8097 H       1  ZINC001341052241    0.0600
     40 H40        -7.3151   -0.9912   67.3802 H       1  ZINC001341052241    0.0700
     41 H41        -9.3697   -1.5007   66.0887 H       1  ZINC001341052241    0.0700
     42 H42        -8.0579   -0.9582   65.0146 H       1  ZINC001341052241    0.0700
     43 H43       -11.1167   -3.6619   58.5692 H       1  ZINC001341052241    0.0600
     44 H44        -9.6794   -2.6292   58.3809 H       1  ZINC001341052241    0.0800
     45 H45       -10.3421   -3.6618   56.2189 H       1  ZINC001341052241    0.0800
     46 H46       -10.4937   -1.8884   56.1636 H       1  ZINC001341052241    0.0800
     47 H47       -12.7591   -3.8740   56.6644 H       1  ZINC001341052241    0.0800
     48 H48       -12.0709   -2.0496   54.3172 H       1  ZINC001341052241    0.0500
     49 H49       -13.6019   -2.9419   54.4858 H       1  ZINC001341052241    0.0500
     50 H50       -13.0059   -4.1752   52.4300 H       1  ZINC001341052241    0.0400
     51 H51       -11.4767   -5.0863   52.4236 H       1  ZINC001341052241    0.0900
     52 H52       -11.4539   -3.3084   52.3395 H       1  ZINC001341052241    0.0400
     53 H53       -12.7832   -0.8300   56.4157 H       1  ZINC001341052241    0.0700
     54 H54       -14.2065   -1.8753   56.6445 H       1  ZINC001341052241    0.0800
     55 H55       -13.2952   -2.6547   58.8091 H       1  ZINC001341052241    0.0600
     56 H56       -13.4578   -0.8824   58.7970 H       1  ZINC001341052241    0.0800
@<TRIPOS>BOND
     1     1     2    1
     2     1    25    1
     3     1    26    1
     4     1    27    1
     5     2     3    1
     6     2    28    1
     7     2    29    1
     8     3    15    1
     9     3     4    1
    10     4     5    1
    11     4    13    2
    12     5     6    1
    13     5    30    1
    14     5    31    1
    15     6     7    1
    16     7    12    1
    17     7     8    1
    18     7    32    1
    19     8     9    1
    20     8    33    1
    21     8    34    1
    22     9    10    1
    23     9    35    1
    24     9    36    1
    25    10    11    1
    26    10    37    1
    27    10    38    1
    28    11    12    1
    29    11    39    1
    30    11    40    1
    31    12    41    1
    32    12    42    1
    33    13    14    1
    34    14    15    2
    35    15    16    1
    36    16    24    1
    37    16    17    1
    38    17    18    1
    39    17    43    1
    40    17    44    1
    41    18    19    1
    42    18    45    1
    43    18    46    1
    44    19    20    1
    45    19    23    1
    46    19    47    1
    47    20    21    1
    48    20    48    1
    49    20    49    1
    50    21    22    1
    51    22    50    1
    52    22    51    1
    53    22    52    1
    54    23    24    1
    55    23    53    1
    56    23    54    1
    57    24    55    1
    58    24    56    1
@<TRIPOS>SUBSTRUCTURE
     1 ZINC001341052241        1 TEMP              0 ****  ****    0 ROOT


##########                                Name:    ZINC000455156110
##########                DOCK_Rotatable_Bonds:                   4
##########                         Heavy_Atoms:                  27
##########                    Molecular_Weight:             370.424
##########                DOCK_Rotatable_Bonds:                   4
##########                       Formal_Charge:           0.0100002
##########                     HBond_Acceptors:                   6
##########                        HBond_Donors:                   1
##########                         Heavy_Atoms:                  27
##########                          Grid_Score:          -27.629932
##########                     Grid_vdw_energy:          -27.411974
##########                      Grid_es_energy:           -0.217959
##########           Internal_energy_repulsive:           45.986656

@<TRIPOS>MOLECULE
ZINC000455156110
 50 53 1 0 0
SMALL
USER_CHARGES


@<TRIPOS>ATOM
      1 C1         -2.1587    2.8638   51.5696 C.3     1  ZINC000455156110    0.0300
      2 O2         -3.1699    3.3818   52.4364 O.3     1  ZINC000455156110   -0.3100
      3 C3         -4.3045    2.6438   52.5721 C.ar    1  ZINC000455156110    0.0900
      4 C4         -5.3275    3.0905   53.3936 C.ar    1  ZINC000455156110   -0.1600
      5 C5         -6.4805    2.3416   53.5319 C.ar    1  ZINC000455156110   -0.0800
      6 C6         -7.5919    2.8281   54.4259 C.3     1  ZINC000455156110   -0.1100
      7 C7         -6.6155    1.1416   52.8477 C.ar    1  ZINC000455156110    0.1500
      8 N8         -7.7854    0.3829   52.9876 N.am    1  ZINC000455156110   -0.6700
      9 C9         -8.9381    0.8143   52.4383 C.2     1  ZINC000455156110    0.7200
     10 O10        -8.9629    1.8617   51.8213 O.2     1  ZINC000455156110   -0.5500
     11 N11       -10.0632    0.0845   52.5729 N.am    1  ZINC000455156110   -0.5600
     12 C12       -10.1593   -1.1872   53.2968 C.3     1  ZINC000455156110    0.1000
     13 C13       -11.6269   -1.6111   53.1624 C.3     1  ZINC000455156110   -0.0200
     14 C14       -11.7267   -2.9509   52.4369 C.3     1  ZINC000455156110   -0.1400
     15 C15       -11.0985   -4.0429   53.3084 C.3     1  ZINC000455156110    0.0600
     16 O16       -11.7490   -4.0667   54.5807 O.3     1  ZINC000455156110   -0.3800
     17 C17       -11.6264   -2.8525   55.3242 C.3     1  ZINC000455156110    0.0600
     18 C18       -12.2778   -1.7090   54.5403 C.3     1  ZINC000455156110   -0.1400
     19 C19       -12.2758   -0.5199   52.3485 C.ar    1  ZINC000455156110   -0.1300
     20 C20       -13.5767   -0.3596   51.9119 C.ar    1  ZINC000455156110   -0.0700
     21 C21       -13.9283    0.7503   51.1661 C.ar    1  ZINC000455156110   -0.1400
     22 C22       -12.9741    1.7018   50.8569 C.ar    1  ZINC000455156110   -0.0900
     23 C23       -11.6742    1.5462   51.2895 C.ar    1  ZINC000455156110   -0.1300
     24 C24       -11.3124    0.4319   52.0476 C.ar    1  ZINC000455156110    0.1600
     25 C25        -5.5914    0.6933   52.0239 C.ar    1  ZINC000455156110   -0.1200
     26 C26        -4.4401    1.4452   51.8824 C.ar    1  ZINC000455156110    0.0900
     27 F27        -3.4432    1.0102   51.0810 F       1  ZINC000455156110   -0.1300
     28 H28        -1.3102    3.5478   51.5517 H       1  ZINC000455156110    0.1000
     29 H29        -1.8326    1.8895   51.9335 H       1  ZINC000455156110    0.0600
     30 H30        -2.5623    2.7590   50.5625 H       1  ZINC000455156110    0.0600
     31 H31        -5.2233    4.0243   53.9260 H       1  ZINC000455156110    0.1400
     32 H32        -8.2797    3.4450   53.8476 H       1  ZINC000455156110    0.0800
     33 H33        -8.1286    1.9729   54.8367 H       1  ZINC000455156110    0.0600
     34 H34        -7.1713    3.4183   55.2400 H       1  ZINC000455156110    0.0800
     35 H35        -7.7655   -0.4527   53.4797 H       1  ZINC000455156110    0.4100
     36 H36        -9.5067   -1.9323   52.8418 H       1  ZINC000455156110    0.0800
     37 H37        -9.9005   -1.0461   54.3462 H       1  ZINC000455156110    0.0900
     38 H38       -12.7746   -3.1889   52.2540 H       1  ZINC000455156110    0.0800
     39 H39       -11.1947   -2.8915   51.4874 H       1  ZINC000455156110    0.0800
     40 H40       -11.2174   -5.0105   52.8210 H       1  ZINC000455156110    0.1000
     41 H41       -10.0378   -3.8326   53.4462 H       1  ZINC000455156110    0.0500
     42 H42       -12.1251   -2.9637   56.2870 H       1  ZINC000455156110    0.1000
     43 H43       -10.5716   -2.6289   55.4842 H       1  ZINC000455156110    0.0500
     44 H44       -12.1355   -0.7714   55.0778 H       1  ZINC000455156110    0.0800
     45 H45       -13.3437   -1.9063   54.4263 H       1  ZINC000455156110    0.0800
     46 H46       -14.3212   -1.1037   52.1536 H       1  ZINC000455156110    0.1300
     47 H47       -14.9457    0.8734   50.8256 H       1  ZINC000455156110    0.1300
     48 H48       -13.2476    2.5693   50.2747 H       1  ZINC000455156110    0.1300
     49 H49       -10.9332    2.2928   51.0442 H       1  ZINC000455156110    0.1400
     50 H50        -5.6959   -0.2403   51.4912 H       1  ZINC000455156110    0.1700
@<TRIPOS>BOND
     1     1     2    1
     2     1    28    1
     3     1    29    1
     4     1    30    1
     5     2     3    1
     6     3    26   ar
     7     3     4   ar
     8     4     5   ar
     9     4    31    1
    10     5     6    1
    11     5     7   ar
    12     6    32    1
    13     6    33    1
    14     6    34    1
    15     7     8    1
    16     7    25   ar
    17     8     9   am
    18     8    35    1
    19     9    10    2
    20     9    11   am
    21    11    24    1
    22    11    12    1
    23    12    13    1
    24    12    36    1
    25    12    37    1
    26    13    18    1
    27    13    14    1
    28    13    19    1
    29    14    15    1
    30    14    38    1
    31    14    39    1
    32    15    16    1
    33    15    40    1
    34    15    41    1
    35    16    17    1
    36    17    18    1
    37    17    42    1
    38    17    43    1
    39    18    44    1
    40    18    45    1
    41    19    24   ar
    42    19    20   ar
    43    20    21   ar
    44    20    46    1
    45    21    22   ar
    46    21    47    1
    47    22    23   ar
    48    22    48    1
    49    23    24   ar
    50    23    49    1
    51    25    26   ar
    52    25    50    1
    53    26    27    1
@<TRIPOS>SUBSTRUCTURE
     1 ZINC000455156110        1 TEMP              0 ****  ****    0 ROOT


##########                                Name:    ZINC001344051361
##########                DOCK_Rotatable_Bonds:                   8
##########                         Heavy_Atoms:                  28
##########                    Molecular_Weight:             379.456
##########                DOCK_Rotatable_Bonds:                   8
##########                       Formal_Charge:          -0.0100006
##########                     HBond_Acceptors:                   5
##########                        HBond_Donors:                   0
##########                         Heavy_Atoms:                  28
##########                          Grid_Score:          -27.621391
##########                     Grid_vdw_energy:          -27.954872
##########                      Grid_es_energy:            0.333481
##########           Internal_energy_repulsive:           18.952047

@<TRIPOS>MOLECULE
ZINC001344051361
 53 56 1 0 0
SMALL
USER_CHARGES


@<TRIPOS>ATOM
      1 O1          0.5574    4.3078   54.6683 O.2     1  ZINC001344051361   -0.4800
      2 C2         -0.5252    3.9515   54.2673 C.2     1  ZINC001344051361    0.4800
      3 O3         -0.6119    3.1261   53.2123 O.3     1  ZINC001344051361   -0.3500
      4 C4          0.4745    3.1701   52.2500 C.3     1  ZINC001344051361    0.0700
      5 C5          0.2075    2.1594   51.1328 C.3     1  ZINC001344051361   -0.1000
      6 H6          0.0529    1.1710   51.5656 H       1  ZINC001344051361    0.0900
      7 C7         -1.0419    2.5770   50.3540 C.3     1  ZINC001344051361   -0.1200
      8 C8         -1.3287    1.5491   49.2571 C.3     1  ZINC001344051361   -0.1300
      9 C9         -0.1460    1.5025   48.2847 C.3     1  ZINC001344051361    0.0800
     10 N10         1.0832    1.2444   49.0471 N.am    1  ZINC001344051361   -0.6100
     11 C11         1.8977    0.2243   48.7117 C.2     1  ZINC001344051361    0.5600
     12 O12         1.6182   -0.4924   47.7706 O.2     1  ZINC001344051361   -0.5300
     13 C13         3.1312   -0.0229   49.4885 C.ar    1  ZINC001344051361   -0.1300
     14 C14         4.3503    0.4984   49.0524 C.ar    1  ZINC001344051361   -0.1000
     15 C15         5.4976    0.2644   49.7821 C.ar    1  ZINC001344051361   -0.1300
     16 C16         5.4414   -0.4854   50.9435 C.ar    1  ZINC001344051361   -0.0900
     17 C17         4.2363   -1.0054   51.3811 C.ar    1  ZINC001344051361   -0.1300
     18 C18         3.0806   -0.7736   50.6640 C.ar    1  ZINC001344051361   -0.0600
     19 C19         1.4080    2.1191   50.1820 C.3     1  ZINC001344051361    0.1200
     20 C20        -1.7780    4.4287   54.9555 C.3     1  ZINC001344051361    0.0200
     21 O21        -1.6275    4.7865   56.3308 O.3     1  ZINC001344051361   -0.2500
     22 C22        -1.4609    3.7707   57.2180 C.ar    1  ZINC001344051361    0.1200
     23 C23        -1.1827    4.0488   58.5484 C.ar    1  ZINC001344051361   -0.2000
     24 C24        -1.0143    3.0144   59.4485 C.ar    1  ZINC001344051361   -0.0800
     25 C25        -1.1224    1.7028   59.0242 C.ar    1  ZINC001344051361   -0.1500
     26 C26        -1.3993    1.4231   57.6989 C.ar    1  ZINC001344051361   -0.0800
     27 C27        -1.5747    2.4540   56.7961 C.ar    1  ZINC001344051361   -0.1400
     28 C28        -2.7804    5.2299   54.1223 C.3     1  ZINC001344051361   -0.1700
     29 C29        -3.1031    3.7916   54.5323 C.3     1  ZINC001344051361   -0.1100
     30 H30         0.5433    4.1715   51.8251 H       1  ZINC001344051361    0.0800
     31 H31         1.4116    2.9218   52.7483 H       1  ZINC001344051361    0.0800
     32 H32        -1.8926    2.6300   51.0335 H       1  ZINC001344051361    0.0700
     33 H33        -0.8777    3.5549   49.9013 H       1  ZINC001344051361    0.0700
     34 H34        -1.4687    0.5662   49.7071 H       1  ZINC001344051361    0.0700
     35 H35        -2.2320    1.8348   48.7180 H       1  ZINC001344051361    0.0800
     36 H36        -0.3006    0.7037   47.5593 H       1  ZINC001344051361    0.1100
     37 H37        -0.0610    2.4578   47.7667 H       1  ZINC001344051361    0.0700
     38 H38         4.3956    1.0832   48.1456 H       1  ZINC001344051361    0.1400
     39 H39         6.4416    0.6672   49.4459 H       1  ZINC001344051361    0.1300
     40 H40         6.3425   -0.6660   51.5109 H       1  ZINC001344051361    0.1300
     41 H41         4.1994   -1.5901   52.2883 H       1  ZINC001344051361    0.1300
     42 H42         2.1404   -1.1797   51.0068 H       1  ZINC001344051361    0.1300
     43 H43         1.6199    3.1249   49.8193 H       1  ZINC001344051361    0.0700
     44 H44         2.2787    1.7272   50.7079 H       1  ZINC001344051361    0.1000
     45 H45        -1.0974    5.0731   58.8801 H       1  ZINC001344051361    0.1300
     46 H46        -0.7976    3.2303   60.4843 H       1  ZINC001344051361    0.1300
     47 H47        -0.9900    0.8955   59.7294 H       1  ZINC001344051361    0.1300
     48 H48        -1.4829    0.3978   57.3699 H       1  ZINC001344051361    0.1300
     49 H49        -1.7909    2.2350   55.7609 H       1  ZINC001344051361    0.1300
     50 H50        -3.3252    6.0302   54.6230 H       1  ZINC001344051361    0.1200
     51 H51        -2.5337    5.4118   53.0763 H       1  ZINC001344051361    0.1200
     52 H52        -3.0687    3.0272   53.7560 H       1  ZINC001344051361    0.1200
     53 H53        -3.8602    3.6457   55.3027 H       1  ZINC001344051361    0.1200
@<TRIPOS>BOND
     1     1     2    2
     2     2     3    1
     3     2    20    1
     4     3     4    1
     5     4     5    1
     6     4    30    1
     7     4    31    1
     8     5     6    1
     9     5    19    1
    10     5     7    1
    11     7     8    1
    12     7    32    1
    13     7    33    1
    14     8     9    1
    15     8    34    1
    16     8    35    1
    17     9    10    1
    18     9    36    1
    19     9    37    1
    20    10    11   am
    21    10    19    1
    22    11    12    2
    23    11    13    1
    24    13    18   ar
    25    13    14   ar
    26    14    15   ar
    27    14    38    1
    28    15    16   ar
    29    15    39    1
    30    16    17   ar
    31    16    40    1
    32    17    18   ar
    33    17    41    1
    34    18    42    1
    35    19    43    1
    36    19    44    1
    37    20    29    1
    38    20    21    1
    39    20    28    1
    40    21    22    1
    41    22    27   ar
    42    22    23   ar
    43    23    24   ar
    44    23    45    1
    45    24    25   ar
    46    24    46    1
    47    25    26   ar
    48    25    47    1
    49    26    27   ar
    50    26    48    1
    51    27    49    1
    52    28    29    1
    53    28    50    1
    54    28    51    1
    55    29    52    1
    56    29    53    1
@<TRIPOS>SUBSTRUCTURE
     1 ZINC001344051361        1 TEMP              0 ****  ****    0 ROOT


##########                                Name:    ZINC000130059363
##########                DOCK_Rotatable_Bonds:                   4
##########                         Heavy_Atoms:                  29
##########                    Molecular_Weight:             389.497
##########                DOCK_Rotatable_Bonds:                   4
##########                       Formal_Charge:          -0.0100003
##########                     HBond_Acceptors:                   5
##########                        HBond_Donors:                   0
##########                         Heavy_Atoms:                  29
##########                          Grid_Score:          -27.581165
##########                     Grid_vdw_energy:          -27.022743
##########                      Grid_es_energy:           -0.558421
##########           Internal_energy_repulsive:           28.700079

@<TRIPOS>MOLECULE
ZINC000130059363
 56 60 1 0 0
SMALL
USER_CHARGES


@<TRIPOS>ATOM
      1 C1        -12.8434   -1.9690   60.4637 C.3     1  ZINC000130059363   -0.1200
      2 C2        -11.4195   -1.5768   60.7633 C.ar    1  ZINC000130059363    0.1900
      3 N3        -11.1533   -0.8617   61.8342 N.ar    1  ZINC000130059363   -0.4800
      4 C4         -9.9144   -0.4931   62.1387 C.ar    1  ZINC000130059363    0.2000
      5 C5         -9.6697    0.3125   63.3585 C.ar    1  ZINC000130059363   -0.0600
      6 C6         -8.3684    0.6624   63.7168 C.ar    1  ZINC000130059363   -0.1000
      7 C7         -8.1468    1.4130   64.8534 C.ar    1  ZINC000130059363   -0.1200
      8 C8         -9.2127    1.8179   65.6369 C.ar    1  ZINC000130059363   -0.1000
      9 C9        -10.5059    1.4733   65.2867 C.ar    1  ZINC000130059363   -0.1300
     10 C10       -10.7403    0.7283   64.1490 C.ar    1  ZINC000130059363   -0.0700
     11 C11        -8.8403   -0.8548   61.3258 C.ar    1  ZINC000130059363   -0.1800
     12 C12        -9.0765   -1.6058   60.1914 C.ar    1  ZINC000130059363   -0.0400
     13 C13       -10.3958   -1.9814   59.9038 C.ar    1  ZINC000130059363   -0.1900
     14 C14       -10.7006   -2.7852   58.7026 C.2     1  ZINC000130059363    0.5700
     15 O15       -10.9046   -3.9792   58.8059 O.2     1  ZINC000130059363   -0.5200
     16 N16       -10.7525   -2.1949   57.4921 N.am    1  ZINC000130059363   -0.6000
     17 C17       -11.0603   -2.9778   56.2867 C.3     1  ZINC000130059363    0.1000
     18 C18       -12.2519   -2.3270   55.5781 C.3     1  ZINC000130059363   -0.1500
     19 C19       -11.9555   -0.8553   55.3131 C.3     1  ZINC000130059363    0.1500
     20 H20       -12.8333   -0.4115   54.8433 H       1  ZINC000130059363    0.0700
     21 C21       -11.6872   -0.1098   56.6189 C.3     1  ZINC000130059363   -0.1100
     22 H22       -12.5782   -0.1222   57.2466 H       1  ZINC000130059363    0.1000
     23 C23       -11.3075    1.3381   56.2699 C.3     1  ZINC000130059363   -0.1200
     24 C24        -9.9489    1.3194   55.5649 C.3     1  ZINC000130059363   -0.1400
     25 C25        -9.9439    0.2855   54.4762 C.2     1  ZINC000130059363    0.5200
     26 O26        -9.0798    0.3497   53.6275 O.2     1  ZINC000130059363   -0.5400
     27 N27       -10.8296   -0.7011   54.4054 N.am    1  ZINC000130059363   -0.5700
     28 C28       -10.6861   -1.6845   53.3290 C.3     1  ZINC000130059363    0.0700
     29 C29       -11.8902   -1.9093   52.4123 C.3     1  ZINC000130059363   -0.1800
     30 C30       -10.6619   -1.1603   51.8918 C.3     1  ZINC000130059363   -0.1600
     31 C31       -10.5088   -0.7543   57.3485 C.3     1  ZINC000130059363    0.1100
     32 H32       -13.0344   -2.9688   60.8533 H       1  ZINC000130059363    0.0800
     33 H33       -13.5228   -1.2592   60.9357 H       1  ZINC000130059363    0.0800
     34 H34       -13.0028   -1.9625   59.3855 H       1  ZINC000130059363    0.1000
     35 H35        -7.5355    0.3463   63.1063 H       1  ZINC000130059363    0.1300
     36 H36        -7.1394    1.6847   65.1319 H       1  ZINC000130059363    0.1300
     37 H37        -9.0345    2.4049   66.5258 H       1  ZINC000130059363    0.1300
     38 H38       -11.3340    1.7919   65.9025 H       1  ZINC000130059363    0.1300
     39 H39       -11.7503    0.4599   63.8766 H       1  ZINC000130059363    0.1400
     40 H40        -7.8358   -0.5507   61.5804 H       1  ZINC000130059363    0.1400
     41 H41        -8.2640   -1.8998   59.5435 H       1  ZINC000130059363    0.1400
     42 H42       -10.1963   -2.9832   55.6221 H       1  ZINC000130059363    0.0700
     43 H43       -11.3140   -3.9999   56.5678 H       1  ZINC000130059363    0.0900
     44 H44       -12.4328   -2.8363   54.6315 H       1  ZINC000130059363    0.0900
     45 H45       -13.1376   -2.4105   56.2080 H       1  ZINC000130059363    0.0800
     46 H46       -12.0597    1.7660   55.6073 H       1  ZINC000130059363    0.0800
     47 H47       -11.2402    1.9308   57.1822 H       1  ZINC000130059363    0.0900
     48 H48        -9.7531    2.3005   55.1322 H       1  ZINC000130059363    0.1000
     49 H49        -9.1693    1.0846   56.2895 H       1  ZINC000130059363    0.1000
     50 H50       -10.0615   -2.5472   53.5607 H       1  ZINC000130059363    0.1100
     51 H51       -12.0580   -2.9202   52.0408 H       1  ZINC000130059363    0.1100
     52 H52       -12.7893   -1.3257   52.6101 H       1  ZINC000130059363    0.1000
     53 H53       -10.7528   -0.0838   51.7472 H       1  ZINC000130059363    0.1000
     54 H54       -10.0216   -1.6784   51.1778 H       1  ZINC000130059363    0.1000
     55 H55       -10.3993   -0.3021   58.3342 H       1  ZINC000130059363    0.1000
     56 H56        -9.5961   -0.6009   56.7728 H       1  ZINC000130059363    0.0700
@<TRIPOS>BOND
     1     1     2    1
     2     1    32    1
     3     1    33    1
     4     1    34    1
     5     2    13   ar
     6     2     3   ar
     7     3     4   ar
     8     4     5    1
     9     4    11   ar
    10     5    10   ar
    11     5     6   ar
    12     6     7   ar
    13     6    35    1
    14     7     8   ar
    15     7    36    1
    16     8     9   ar
    17     8    37    1
    18     9    10   ar
    19     9    38    1
    20    10    39    1
    21    11    12   ar
    22    11    40    1
    23    12    13   ar
    24    12    41    1
    25    13    14    1
    26    14    15    2
    27    14    16   am
    28    16    31    1
    29    16    17    1
    30    17    18    1
    31    17    42    1
    32    17    43    1
    33    18    19    1
    34    18    44    1
    35    18    45    1
    36    19    20    1
    37    19    27    1
    38    19    21    1
    39    21    22    1
    40    21    23    1
    41    21    31    1
    42    23    24    1
    43    23    46    1
    44    23    47    1
    45    24    25    1
    46    24    48    1
    47    24    49    1
    48    25    26    2
    49    25    27   am
    50    27    28    1
    51    28    30    1
    52    28    29    1
    53    28    50    1
    54    29    30    1
    55    29    51    1
    56    29    52    1
    57    30    53    1
    58    30    54    1
    59    31    55    1
    60    31    56    1
@<TRIPOS>SUBSTRUCTURE
     1 ZINC000130059363        1 TEMP              0 ****  ****    0 ROOT


##########                                Name:    ZINC000373864439
##########                DOCK_Rotatable_Bonds:                   7
##########                         Heavy_Atoms:                  23
##########                    Molecular_Weight:              344.45
##########                DOCK_Rotatable_Bonds:                   7
##########                       Formal_Charge:          -0.0300001
##########                     HBond_Acceptors:                   7
##########                        HBond_Donors:                   1
##########                         Heavy_Atoms:                  23
##########                          Grid_Score:          -27.567099
##########                     Grid_vdw_energy:          -25.720901
##########                      Grid_es_energy:           -1.846197
##########           Internal_energy_repulsive:           20.951876

@<TRIPOS>MOLECULE
ZINC000373864439
 48 49 1 0 0
SMALL
USER_CHARGES


@<TRIPOS>ATOM
      1 C1         -8.8593    1.6811   54.5565 C.3     1  ZINC000373864439   -0.1500
      2 C2         -7.4377    2.0654   54.9718 C.3     1  ZINC000373864439   -0.6300
      3 S3         -6.5791    2.8196   53.5630 S.o2    1  ZINC000373864439    2.6100
      4 O4         -6.3330    1.8512   52.5526 O.2     1  ZINC000373864439   -0.9500
      5 O5         -7.1537    4.0798   53.2455 O.2     1  ZINC000373864439   -0.9600
      6 N6         -5.0749    3.1919   54.1470 N.am    1  ZINC000373864439   -1.1200
      7 C7         -4.0864    3.8278   53.2726 C.3     1  ZINC000373864439    0.1100
      8 C8         -2.8924    2.8896   53.0857 C.3     1  ZINC000373864439    0.0500
      9 N9         -2.3555    3.0449   51.7272 N.3     1  ZINC000373864439   -0.5300
     10 C10        -2.2682    1.7478   51.0444 C.3     1  ZINC000373864439    0.0400
     11 C11        -1.8449    1.9631   49.5896 C.3     1  ZINC000373864439   -0.1300
     12 C12        -0.4872    2.6702   49.5575 C.3     1  ZINC000373864439    0.1800
     13 F13         0.4770    1.8588   50.1652 F       1  ZINC000373864439   -0.2100
     14 C14        -0.0921    2.9373   48.1279 C.ar    1  ZINC000373864439   -0.1500
     15 C15        -0.0750    4.2315   47.6458 C.ar    1  ZINC000373864439   -0.0700
     16 C16         0.2871    4.4772   46.3339 C.ar    1  ZINC000373864439   -0.1600
     17 C17         0.6331    3.4288   45.5020 C.ar    1  ZINC000373864439   -0.0700
     18 C18         0.6181    2.1324   45.9796 C.ar    1  ZINC000373864439   -0.2100
     19 C19         0.2605    1.8838   47.2965 C.ar    1  ZINC000373864439    0.1400
     20 O20         0.2449    0.6096   47.7688 O.3     1  ZINC000373864439   -0.3100
     21 C21         0.5406   -0.4316   46.8358 C.3     1  ZINC000373864439    0.0200
     22 C22        -0.5928    3.9957   50.3167 C.3     1  ZINC000373864439   -0.1300
     23 C23        -1.0523    3.7214   51.7504 C.3     1  ZINC000373864439    0.0600
     24 H24        -8.8170    0.9684   53.7328 H       1  ZINC000373864439    0.0700
     25 H25        -9.3751    1.2280   55.4030 H       1  ZINC000373864439    0.0800
     26 H26        -9.3984    2.5732   54.2377 H       1  ZINC000373864439    0.0700
     27 H27        -7.4800    2.7782   55.7954 H       1  ZINC000373864439    0.1300
     28 H28        -6.8986    1.1733   55.2906 H       1  ZINC000373864439    0.1300
     29 H29        -4.8483    2.9890   55.0681 H       1  ZINC000373864439    0.4200
     30 H30        -4.5397    4.0367   52.3035 H       1  ZINC000373864439    0.0700
     31 H31        -3.7484    4.7605   53.7242 H       1  ZINC000373864439    0.0900
     32 H32        -2.1187    3.1369   53.8126 H       1  ZINC000373864439    0.0900
     33 H33        -3.2138    1.8586   53.2337 H       1  ZINC000373864439    0.0400
     34 H34        -1.5321    1.1211   51.5478 H       1  ZINC000373864439    0.0400
     35 H35        -3.2413    1.2573   51.0707 H       1  ZINC000373864439    0.0900
     36 H36        -1.7651    0.9991   49.0873 H       1  ZINC000373864439    0.0800
     37 H37        -2.5877    2.5783   49.0817 H       1  ZINC000373864439    0.1000
     38 H38        -0.3451    5.0523   48.2936 H       1  ZINC000373864439    0.1300
     39 H39         0.2990    5.4898   45.9586 H       1  ZINC000373864439    0.1300
     40 H40         0.9153    3.6232   44.4777 H       1  ZINC000373864439    0.1300
     41 H41         0.8883    1.3136   45.3291 H       1  ZINC000373864439    0.1300
     42 H42         0.4941   -1.3963   47.3412 H       1  ZINC000373864439    0.1000
     43 H43        -0.1879   -0.4108   46.0252 H       1  ZINC000373864439    0.0600
     44 H44         1.5408   -0.2821   46.4293 H       1  ZINC000373864439    0.0600
     45 H45         0.3817    4.4838   50.3340 H       1  ZINC000373864439    0.0800
     46 H46        -1.3159    4.6428   49.8203 H       1  ZINC000373864439    0.1000
     47 H47        -1.1423    4.6645   52.2897 H       1  ZINC000373864439    0.0800
     48 H48        -0.3219    3.0856   52.2506 H       1  ZINC000373864439    0.0400
@<TRIPOS>BOND
     1     1     2    1
     2     1    24    1
     3     1    25    1
     4     1    26    1
     5     2     3    1
     6     2    27    1
     7     2    28    1
     8     3     4    2
     9     3     5    2
    10     3     6   am
    11     6     7    1
    12     6    29    1
    13     7     8    1
    14     7    30    1
    15     7    31    1
    16     8     9    1
    17     8    32    1
    18     8    33    1
    19     9    23    1
    20     9    10    1
    21    10    11    1
    22    10    34    1
    23    10    35    1
    24    11    12    1
    25    11    36    1
    26    11    37    1
    27    12    13    1
    28    12    14    1
    29    12    22    1
    30    14    19   ar
    31    14    15   ar
    32    15    16   ar
    33    15    38    1
    34    16    17   ar
    35    16    39    1
    36    17    18   ar
    37    17    40    1
    38    18    19   ar
    39    18    41    1
    40    19    20    1
    41    20    21    1
    42    21    42    1
    43    21    43    1
    44    21    44    1
    45    22    23    1
    46    22    45    1
    47    22    46    1
    48    23    47    1
    49    23    48    1
@<TRIPOS>SUBSTRUCTURE
     1 ZINC000373864439        1 TEMP              0 ****  ****    0 ROOT


##########                                Name:    ZINC000540473851
##########                DOCK_Rotatable_Bonds:                   5
##########                         Heavy_Atoms:                  29
##########                    Molecular_Weight:             411.503
##########                DOCK_Rotatable_Bonds:                   5
##########                       Formal_Charge:           0.0200001
##########                     HBond_Acceptors:                   8
##########                        HBond_Donors:                   0
##########                         Heavy_Atoms:                  29
##########                          Grid_Score:          -27.558891
##########                     Grid_vdw_energy:          -28.128342
##########                      Grid_es_energy:            0.569450
##########           Internal_energy_repulsive:           29.718616

@<TRIPOS>MOLECULE
ZINC000540473851
 51 54 1 0 0
SMALL
USER_CHARGES


@<TRIPOS>ATOM
      1 C1        -15.2931   -1.9523   57.2550 C.3     1  ZINC000540473851   -0.0800
      2 C2        -14.4403   -1.8508   58.4933 C.2     1  ZINC000540473851    0.1500
      3 C3        -13.2200   -2.4615   58.6105 C.2     1  ZINC000540473851   -0.3100
      4 C4        -12.5628   -3.2856   57.5889 C.2     1  ZINC000540473851    0.6000
      5 O5        -12.7774   -4.4824   57.5422 O.2     1  ZINC000540473851   -0.5100
      6 N6        -11.7216   -2.7167   56.7028 N.am    1  ZINC000540473851   -0.6100
      7 C7        -11.0573   -3.5228   55.6675 C.3     1  ZINC000540473851    0.1000
      8 C8        -11.2886   -2.8551   54.3078 C.3     1  ZINC000540473851    0.0400
      9 N9        -10.8569   -1.4526   54.3749 N.3     1  ZINC000540473851   -0.5300
     10 C10       -10.9010   -0.8241   53.0478 C.3     1  ZINC000540473851    0.1200
     11 H11       -11.5025    0.0838   53.0955 H       1  ZINC000540473851    0.0500
     12 C12       -11.5236   -1.7962   52.0436 C.3     1  ZINC000540473851   -0.1400
     13 C13        -9.5015   -0.4771   52.6096 C.ar    1  ZINC000540473851   -0.0500
     14 C14        -9.1467    0.8442   52.4133 C.ar    1  ZINC000540473851   -0.1000
     15 C15        -7.8631    1.1642   52.0111 C.ar    1  ZINC000540473851   -0.0900
     16 C16        -6.9334    0.1629   51.8050 C.ar    1  ZINC000540473851   -0.1500
     17 C17        -7.2876   -1.1613   52.0019 C.ar    1  ZINC000540473851    0.1000
     18 F18        -6.3794   -2.1410   51.8007 F       1  ZINC000540473851   -0.1400
     19 C19        -8.5716   -1.4800   52.4096 C.ar    1  ZINC000540473851   -0.1500
     20 C20       -11.6596   -0.6938   55.3435 C.3     1  ZINC000540473851    0.0400
     21 C21       -11.4483   -1.2720   56.7419 C.3     1  ZINC000540473851    0.1200
     22 S22       -12.5804   -2.0800   60.2075 S.3     1  ZINC000540473851    0.2800
     23 C23       -13.9766   -1.1590   60.5597 C.2     1  ZINC000540473851    0.0800
     24 C24       -14.2169   -0.4456   61.8334 C.ar    1  ZINC000540473851    0.3800
     25 N25       -13.1867   -0.1544   62.6172 N.ar    1  ZINC000540473851   -0.5100
     26 C26       -13.3671    0.4818   63.7611 C.ar    1  ZINC000540473851    0.1600
     27 C27       -14.6519    0.8455   64.1382 C.ar    1  ZINC000540473851   -0.2100
     28 C28       -15.7065    0.5258   63.2950 C.ar    1  ZINC000540473851    0.1500
     29 N29       -15.4571   -0.1071   62.1622 N.ar    1  ZINC000540473851   -0.4700
     30 N30       -14.7965   -1.1682   59.5476 N.2     1  ZINC000540473851   -0.4300
     31 H31       -15.0393   -1.1419   56.5716 H       1  ZINC000540473851    0.0900
     32 H32       -15.1118   -2.9097   56.7665 H       1  ZINC000540473851    0.0800
     33 H33       -16.3450   -1.8788   57.5312 H       1  ZINC000540473851    0.0800
     34 H34        -9.9881   -3.5740   55.8732 H       1  ZINC000540473851    0.0900
     35 H35       -11.4798   -4.5276   55.6586 H       1  ZINC000540473851    0.0900
     36 H36       -10.7121   -3.3768   53.5436 H       1  ZINC000540473851    0.1000
     37 H37       -12.3484   -2.8980   54.0570 H       1  ZINC000540473851    0.0400
     38 H38       -10.9223   -2.7040   51.9960 H       1  ZINC000540473851    0.0700
     39 H39       -12.5359   -2.0471   52.3607 H       1  ZINC000540473851    0.0600
     40 H40       -11.5564   -1.3299   51.0589 H       1  ZINC000540473851    0.0600
     41 H41        -9.8729    1.6275   52.5737 H       1  ZINC000540473851    0.1400
     42 H42        -7.5871    2.1970   51.8576 H       1  ZINC000540473851    0.1300
     43 H43        -5.9310    0.4130   51.4903 H       1  ZINC000540473851    0.1300
     44 H44        -8.8488   -2.5123   52.5638 H       1  ZINC000540473851    0.1300
     45 H45       -11.3523    0.3519   55.3306 H       1  ZINC000540473851    0.1000
     46 H46       -12.7143   -0.7668   55.0784 H       1  ZINC000540473851    0.0400
     47 H47       -12.1268   -0.7882   57.4445 H       1  ZINC000540473851    0.1000
     48 H48       -10.4166   -1.1089   57.0535 H       1  ZINC000540473851    0.0800
     49 H49       -12.5246    0.7157   64.3952 H       1  ZINC000540473851    0.1800
     50 H50       -14.8274    1.3660   65.0681 H       1  ZINC000540473851    0.1600
     51 H51       -16.7184    0.7947   63.5595 H       1  ZINC000540473851    0.1800
@<TRIPOS>BOND
     1     1     2    1
     2     1    31    1
     3     1    32    1
     4     1    33    1
     5     2    30    1
     6     2     3    2
     7     3     4    1
     8     3    22    1
     9     4     5    2
    10     4     6   am
    11     6    21    1
    12     6     7    1
    13     7     8    1
    14     7    34    1
    15     7    35    1
    16     8     9    1
    17     8    36    1
    18     8    37    1
    19     9    10    1
    20     9    20    1
    21    10    11    1
    22    10    12    1
    23    10    13    1
    24    12    38    1
    25    12    39    1
    26    12    40    1
    27    13    19   ar
    28    13    14   ar
    29    14    15   ar
    30    14    41    1
    31    15    16   ar
    32    15    42    1
    33    16    17   ar
    34    16    43    1
    35    17    18    1
    36    17    19   ar
    37    19    44    1
    38    20    21    1
    39    20    45    1
    40    20    46    1
    41    21    47    1
    42    21    48    1
    43    22    23    1
    44    23    24    1
    45    23    30    2
    46    24    29   ar
    47    24    25   ar
    48    25    26   ar
    49    26    27   ar
    50    26    49    1
    51    27    28   ar
    52    27    50    1
    53    28    29   ar
    54    28    51    1
@<TRIPOS>SUBSTRUCTURE
     1 ZINC000540473851        1 TEMP              0 ****  ****    0 ROOT


##########                                Name:    ZINC001082278299
##########                DOCK_Rotatable_Bonds:                   9
##########                         Heavy_Atoms:                  25
##########                    Molecular_Weight:              346.47
##########                DOCK_Rotatable_Bonds:                   9
##########                       Formal_Charge:           0.0200001
##########                     HBond_Acceptors:                   5
##########                        HBond_Donors:                   1
##########                         Heavy_Atoms:                  25
##########                          Grid_Score:          -27.522623
##########                     Grid_vdw_energy:          -27.027964
##########                      Grid_es_energy:           -0.494660
##########           Internal_energy_repulsive:           94.782082

@<TRIPOS>MOLECULE
ZINC001082278299
 55 57 1 0 0
SMALL
USER_CHARGES


@<TRIPOS>ATOM
      1 C1         -6.9481    3.4547   54.3250 C.3     1  ZINC001082278299   -0.1300
      2 C2         -6.1740    2.8344   53.1906 C.2     1  ZINC001082278299    0.0000
      3 C3         -4.8485    2.7489   53.2582 C.2     1  ZINC001082278299   -0.2300
      4 C4         -4.0930    2.1433   52.1509 C.2     1  ZINC001082278299    0.5400
      5 O5         -4.3463    1.0099   51.7902 O.2     1  ZINC001082278299   -0.5300
      6 N6         -3.1200    2.8446   51.5361 N.am    1  ZINC001082278299   -0.7400
      7 C7         -2.3688    2.2421   50.4321 C.3     1  ZINC001082278299    0.1300
      8 C8         -0.8903    2.1461   50.8139 C.3     1  ZINC001082278299    0.1400
      9 H9         -0.7677    1.4253   51.6223 H       1  ZINC001082278299    0.0800
     10 C10        -0.3874    3.5194   51.2696 C.3     1  ZINC001082278299   -0.1300
     11 C11         1.1214    3.4496   51.5165 C.3     1  ZINC001082278299   -0.1200
     12 C12         1.8365    3.0810   50.2148 C.3     1  ZINC001082278299   -0.1400
     13 C13         1.3589    1.7026   49.7471 C.3     1  ZINC001082278299    0.1100
     14 N14        -0.1073    1.7158   49.6475 N.am    1  ZINC001082278299   -0.6100
     15 C15        -0.7214    1.3452   48.5064 C.2     1  ZINC001082278299    0.5100
     16 O16        -1.9320    1.3603   48.4368 O.2     1  ZINC001082278299   -0.5100
     17 C17         0.0964    0.9119   47.3170 C.3     1  ZINC001082278299   -0.1100
     18 C18         0.7118    2.1220   46.6629 C.2     1  ZINC001082278299   -0.0900
     19 C19         1.9381    2.0472   46.2382 C.2     1  ZINC001082278299   -0.1800
     20 C20         2.6451    3.1985   45.5813 C.3     1  ZINC001082278299    0.0900
     21 O21         1.6997    4.1928   45.1817 O.3     1  ZINC001082278299   -0.3800
     22 C22         0.7978    4.5629   46.2320 C.3     1  ZINC001082278299    0.0600
     23 C23        -0.1180    3.3681   46.5209 C.3     1  ZINC001082278299   -0.1100
     24 C24        -6.9019    2.3108   51.9793 C.3     1  ZINC001082278299   -0.1200
     25 C25        -8.1482    1.4562   52.2188 C.3     1  ZINC001082278299   -0.1900
     26 C26        -8.2901    2.8838   51.6869 C.3     1  ZINC001082278299   -0.1500
     27 H27        -7.0524    4.5256   54.1508 H       1  ZINC001082278299    0.0800
     28 H28        -7.9361    2.9981   54.3833 H       1  ZINC001082278299    0.0800
     29 H29        -6.4155    3.2891   55.2616 H       1  ZINC001082278299    0.0700
     30 H30        -4.3269    3.1241   54.1263 H       1  ZINC001082278299    0.1300
     31 H31        -2.9171    3.7482   51.8246 H       1  ZINC001082278299    0.3900
     32 H32        -2.7574    1.2439   50.2303 H       1  ZINC001082278299    0.0900
     33 H33        -2.4744    2.8602   49.5406 H       1  ZINC001082278299    0.0800
     34 H34        -0.5955    4.2583   50.4957 H       1  ZINC001082278299    0.0700
     35 H35        -0.8941    3.8050   52.1915 H       1  ZINC001082278299    0.0800
     36 H36         1.4776    4.4192   51.8646 H       1  ZINC001082278299    0.0700
     37 H37         1.3309    2.6931   52.2728 H       1  ZINC001082278299    0.0700
     38 H38         1.6075    3.8240   49.4508 H       1  ZINC001082278299    0.0700
     39 H39         2.9127    3.0544   50.3859 H       1  ZINC001082278299    0.0800
     40 H40         1.7896    1.4783   48.7712 H       1  ZINC001082278299    0.0900
     41 H41         1.6673    0.9452   50.4676 H       1  ZINC001082278299    0.0700
     42 H42         0.8855    0.2356   47.6456 H       1  ZINC001082278299    0.1000
     43 H43        -0.5466    0.3996   46.6013 H       1  ZINC001082278299    0.1000
     44 H44         2.4721    1.1168   46.3633 H       1  ZINC001082278299    0.1100
     45 H45         3.3540    3.6358   46.2845 H       1  ZINC001082278299    0.0600
     46 H46         3.1839    2.8391   44.7047 H       1  ZINC001082278299    0.1000
     47 H47         1.3633    4.8220   47.1271 H       1  ZINC001082278299    0.0600
     48 H48         0.1975    5.4163   45.9166 H       1  ZINC001082278299    0.1000
     49 H49        -0.8272    3.2480   45.7019 H       1  ZINC001082278299    0.0800
     50 H50        -0.6621    3.5439   47.4489 H       1  ZINC001082278299    0.0800
     51 H51        -6.2727    2.0559   51.1265 H       1  ZINC001082278299    0.1300
     52 H52        -8.3392    0.6388   51.5235 H       1  ZINC001082278299    0.1000
     53 H53        -8.4417    1.2727   53.2524 H       1  ZINC001082278299    0.1000
     54 H54        -8.6769    3.6395   52.3707 H       1  ZINC001082278299    0.0900
     55 H55        -8.5744    3.0055   50.6418 H       1  ZINC001082278299    0.1000
@<TRIPOS>BOND
     1     1     2    1
     2     1    27    1
     3     1    28    1
     4     1    29    1
     5     2     3    2
     6     2    24    1
     7     3     4    1
     8     3    30    1
     9     4     5    2
    10     4     6   am
    11     6     7    1
    12     6    31    1
    13     7     8    1
    14     7    32    1
    15     7    33    1
    16     8     9    1
    17     8    14    1
    18     8    10    1
    19    10    11    1
    20    10    34    1
    21    10    35    1
    22    11    12    1
    23    11    36    1
    24    11    37    1
    25    12    13    1
    26    12    38    1
    27    12    39    1
    28    13    14    1
    29    13    40    1
    30    13    41    1
    31    14    15   am
    32    15    16    2
    33    15    17    1
    34    17    18    1
    35    17    42    1
    36    17    43    1
    37    18    23    1
    38    18    19    2
    39    19    20    1
    40    19    44    1
    41    20    21    1
    42    20    45    1
    43    20    46    1
    44    21    22    1
    45    22    23    1
    46    22    47    1
    47    22    48    1
    48    23    49    1
    49    23    50    1
    50    24    26    1
    51    24    25    1
    52    24    51    1
    53    25    26    1
    54    25    52    1
    55    25    53    1
    56    26    54    1
    57    26    55    1
@<TRIPOS>SUBSTRUCTURE
     1 ZINC001082278299        1 TEMP              0 ****  ****    0 ROOT


##########                                Name:    ZINC000521663393
##########                DOCK_Rotatable_Bonds:                   5
##########                         Heavy_Atoms:                  27
##########                    Molecular_Weight:              386.49
##########                DOCK_Rotatable_Bonds:                   5
##########                       Formal_Charge:               -0.02
##########                     HBond_Acceptors:                   6
##########                        HBond_Donors:                   1
##########                         Heavy_Atoms:                  27
##########                          Grid_Score:          -27.516977
##########                     Grid_vdw_energy:          -27.394415
##########                      Grid_es_energy:           -0.122563
##########           Internal_energy_repulsive:           20.788092

@<TRIPOS>MOLECULE
ZINC000521663393
 50 53 1 0 0
SMALL
USER_CHARGES


@<TRIPOS>ATOM
      1 C1        -11.3910   -2.9682   52.6271 C.3     1  ZINC000521663393   -0.1500
      2 C2        -10.4616   -2.0462   51.8351 C.3     1  ZINC000521663393    0.0800
      3 H3        -10.6964   -2.0849   50.7715 H       1  ZINC000521663393    0.0900
      4 O4         -9.0849   -2.3908   52.0657 O.3     1  ZINC000521663393   -0.2900
      5 C5         -8.3284   -1.2595   52.0362 C.ar    1  ZINC000521663393    0.1400
      6 C6         -6.9566   -1.1078   51.8540 C.ar    1  ZINC000521663393   -0.1800
      7 C7         -6.3879    0.1515   51.8701 C.ar    1  ZINC000521663393    0.1400
      8 F8         -5.0557    0.2901   51.6931 F       1  ZINC000521663393   -0.1300
      9 C9         -7.1774    1.2720   52.0665 C.ar    1  ZINC000521663393   -0.1800
     10 C10        -8.5419    1.1279   52.2435 C.ar    1  ZINC000521663393   -0.0200
     11 C11        -9.1102   -0.1264   52.2244 C.ar    1  ZINC000521663393   -0.2000
     12 C12       -10.5490   -0.5948   52.3634 C.3     1  ZINC000521663393    0.1700
     13 H13       -10.8651   -0.5778   53.4063 H       1  ZINC000521663393    0.1200
     14 N14       -11.4454    0.2144   51.5341 N.am    1  ZINC000521663393   -0.7200
     15 C15       -12.5643    0.7428   52.0685 C.2     1  ZINC000521663393    0.5300
     16 O16       -12.8281    0.5496   53.2364 O.2     1  ZINC000521663393   -0.5000
     17 C17       -13.4873    1.5737   51.2150 C.3     1  ZINC000521663393    0.1200
     18 H18       -14.0381    2.2701   51.8471 H       1  ZINC000521663393    0.0700
     19 C19       -12.6782    2.3449   50.2041 C.ar    1  ZINC000521663393   -0.0900
     20 C20       -11.4887    2.9405   50.5800 C.ar    1  ZINC000521663393   -0.0900
     21 C21       -10.7466    3.6479   49.6528 C.ar    1  ZINC000521663393   -0.1200
     22 C22       -11.1938    3.7594   48.3495 C.ar    1  ZINC000521663393   -0.1100
     23 C23       -12.3827    3.1630   47.9734 C.ar    1  ZINC000521663393   -0.1200
     24 C24       -13.1227    2.4520   48.8996 C.ar    1  ZINC000521663393   -0.1100
     25 N25       -14.4331    0.6934   50.5162 N.3     1  ZINC000521663393   -0.5300
     26 C26       -15.4984    0.2469   51.4168 C.3     1  ZINC000521663393    0.0500
     27 C27       -16.6823   -0.2828   50.6006 C.3     1  ZINC000521663393   -0.0700
     28 S28       -16.1211   -1.7176   49.6337 S.3     1  ZINC000521663393   -0.2700
     29 C29       -14.6375   -1.0598   48.8122 C.3     1  ZINC000521663393   -0.0700
     30 C30       -13.7351   -0.4231   49.8746 C.3     1  ZINC000521663393    0.0600
     31 H31       -12.4235   -2.6458   52.4926 H       1  ZINC000521663393    0.0800
     32 H32       -11.2801   -3.9913   52.2681 H       1  ZINC000521663393    0.0800
     33 H33       -11.1315   -2.9241   53.6848 H       1  ZINC000521663393    0.0700
     34 H34        -6.3348   -1.9773   51.6999 H       1  ZINC000521663393    0.1400
     35 H35        -6.7296    2.2547   52.0818 H       1  ZINC000521663393    0.1400
     36 H36        -9.1615    1.9991   52.3967 H       1  ZINC000521663393    0.1300
     37 H37       -11.2338    0.3700   50.6003 H       1  ZINC000521663393    0.4000
     38 H38       -11.1394    2.8534   51.5982 H       1  ZINC000521663393    0.1300
     39 H39        -9.8176    4.1138   49.9467 H       1  ZINC000521663393    0.1300
     40 H40       -10.6143    4.3126   47.6253 H       1  ZINC000521663393    0.1200
     41 H41       -12.7323    3.2504   46.9553 H       1  ZINC000521663393    0.1300
     42 H42       -14.0518    1.9861   48.6057 H       1  ZINC000521663393    0.1200
     43 H43       -15.1191   -0.5461   52.0613 H       1  ZINC000521663393    0.0500
     44 H44       -15.8280    1.0848   52.0312 H       1  ZINC000521663393    0.1000
     45 H45       -17.4846   -0.5857   51.2733 H       1  ZINC000521663393    0.1100
     46 H46       -17.0399    0.4958   49.9267 H       1  ZINC000521663393    0.0900
     47 H47       -14.1037   -1.8705   48.3163 H       1  ZINC000521663393    0.1100
     48 H48       -14.9281   -0.3069   48.0795 H       1  ZINC000521663393    0.1000
     49 H49       -12.8231   -0.0571   49.4030 H       1  ZINC000521663393    0.0800
     50 H50       -13.4783   -1.1695   50.6262 H       1  ZINC000521663393    0.0500
@<TRIPOS>BOND
     1     1     2    1
     2     1    31    1
     3     1    32    1
     4     1    33    1
     5     2     3    1
     6     2    12    1
     7     2     4    1
     8     4     5    1
     9     5    11   ar
    10     5     6   ar
    11     6     7   ar
    12     6    34    1
    13     7     8    1
    14     7     9   ar
    15     9    10   ar
    16     9    35    1
    17    10    11   ar
    18    10    36    1
    19    11    12    1
    20    12    13    1
    21    12    14    1
    22    14    15   am
    23    14    37    1
    24    15    16    2
    25    15    17    1
    26    17    18    1
    27    17    19    1
    28    17    25    1
    29    19    24   ar
    30    19    20   ar
    31    20    21   ar
    32    20    38    1
    33    21    22   ar
    34    21    39    1
    35    22    23   ar
    36    22    40    1
    37    23    24   ar
    38    23    41    1
    39    24    42    1
    40    25    30    1
    41    25    26    1
    42    26    27    1
    43    26    43    1
    44    26    44    1
    45    27    28    1
    46    27    45    1
    47    27    46    1
    48    28    29    1
    49    29    30    1
    50    29    47    1
    51    29    48    1
    52    30    49    1
    53    30    50    1
@<TRIPOS>SUBSTRUCTURE
     1 ZINC000521663393        1 TEMP              0 ****  ****    0 ROOT


##########                                Name:    ZINC001018118384
##########                DOCK_Rotatable_Bonds:                   5
##########                         Heavy_Atoms:                  25
##########                    Molecular_Weight:             347.374
##########                DOCK_Rotatable_Bonds:                   5
##########                       Formal_Charge:           0.0299997
##########                     HBond_Acceptors:                   9
##########                        HBond_Donors:                   2
##########                         Heavy_Atoms:                  25
##########                          Grid_Score:          -27.507957
##########                     Grid_vdw_energy:          -26.177683
##########                      Grid_es_energy:           -1.330274
##########           Internal_energy_repulsive:           97.517273

@<TRIPOS>MOLECULE
ZINC001018118384
 46 48 1 0 0
SMALL
USER_CHARGES


@<TRIPOS>ATOM
      1 C1          4.1118   -1.0864   51.4201 C.3     1  ZINC001018118384   -0.0700
      2 C2          3.4961    0.1244   50.7675 C.2     1  ZINC001018118384    0.2200
      3 N3          3.3655    0.3078   49.4854 N.2     1  ZINC001018118384   -0.4600
      4 C4          2.7687    1.5084   49.2722 C.2     1  ZINC001018118384   -0.0700
      5 C5          2.4381    2.0962   47.9624 C.2     1  ZINC001018118384    0.6100
      6 O6          3.1245    2.9908   47.5066 O.2     1  ZINC001018118384   -0.5400
      7 N7          1.3749    1.6426   47.2693 N.am    1  ZINC001018118384   -0.5900
      8 C8          0.5327    0.5666   47.8095 C.3     1  ZINC001018118384    0.0700
      9 C9         -0.9256    1.0356   47.8111 C.3     1  ZINC001018118384    0.1300
     10 H10        -1.5717    0.2135   48.1190 H       1  ZINC001018118384    0.1100
     11 N11        -1.0785    2.1540   48.7449 N.am    1  ZINC001018118384   -0.7000
     12 C12        -1.7806    1.9899   49.8836 C.2     1  ZINC001018118384    0.6000
     13 O13        -2.2878    0.9149   50.1350 O.2     1  ZINC001018118384   -0.4900
     14 C14        -1.9338    3.1208   50.8292 C.2     1  ZINC001018118384    0.0300
     15 C15        -1.4284    4.3775   50.6757 C.2     1  ZINC001018118384   -0.2300
     16 C16        -1.8561    5.0662   51.8455 C.2     1  ZINC001018118384    0.4800
     17 O17        -1.6335    6.2292   52.1384 O.2     1  ZINC001018118384   -0.5200
     18 N18        -2.5592    4.1664   52.5622 N.am    1  ZINC001018118384   -0.4500
     19 C19        -3.1931    4.4446   53.8534 C.3     1  ZINC001018118384    0.1100
     20 O20        -2.6010    3.1003   51.9930 O.3     1  ZINC001018118384    0.0000
     21 C21        -1.3129    1.4894   46.4017 C.3     1  ZINC001018118384   -0.1300
     22 C22        -0.4279    2.6650   45.9814 C.3     1  ZINC001018118384   -0.1300
     23 C23         1.0325    2.2187   45.9618 C.3     1  ZINC001018118384    0.1400
     24 H24         1.1736    1.4639   45.1881 H       1  ZINC001018118384    0.0700
     25 C25         1.9328    3.4220   45.6745 C.3     1  ZINC001018118384   -0.1400
     26 C26         2.5304    2.0713   50.4919 C.2     1  ZINC001018118384    0.0400
     27 N27         2.9823    1.1980   51.4226 N.pl3   1  ZINC001018118384   -0.5600
     28 H28         3.3393   -1.8337   51.6014 H       1  ZINC001018118384    0.0900
     29 H29         4.8747   -1.5046   50.7634 H       1  ZINC001018118384    0.1000
     30 H30         4.5666   -0.7967   52.3673 H       1  ZINC001018118384    0.0800
     31 H31         0.6302   -0.3219   47.1857 H       1  ZINC001018118384    0.0800
     32 H32         0.8436    0.3360   48.8285 H       1  ZINC001018118384    0.1500
     33 H33        -0.6746    3.0126   48.5437 H       1  ZINC001018118384    0.4100
     34 H34        -0.8391    4.7614   49.8561 H       1  ZINC001018118384    0.1900
     35 H35        -4.2104    4.8001   53.6895 H       1  ZINC001018118384    0.0800
     36 H36        -3.2186    3.5325   54.4497 H       1  ZINC001018118384    0.0900
     37 H37        -2.6220    5.2081   54.3815 H       1  ZINC001018118384    0.1100
     38 H38        -1.1754    0.6636   45.7038 H       1  ZINC001018118384    0.0900
     39 H39        -2.3575    1.8004   46.3947 H       1  ZINC001018118384    0.0800
     40 H40        -0.7198    3.0028   44.9869 H       1  ZINC001018118384    0.0800
     41 H41        -0.5463    3.4822   46.6928 H       1  ZINC001018118384    0.0600
     42 H42         1.7793    4.1817   46.4409 H       1  ZINC001018118384    0.0700
     43 H43         2.9757    3.1052   45.6808 H       1  ZINC001018118384    0.0800
     44 H44         1.6848    3.8364   44.6973 H       1  ZINC001018118384    0.0400
     45 H45         2.0660    3.0280   50.6793 H       1  ZINC001018118384    0.1900
     46 H46         2.9510    1.3200   52.3843 H       1  ZINC001018118384    0.4300
@<TRIPOS>BOND
     1     1     2    1
     2     1    28    1
     3     1    29    1
     4     1    30    1
     5     2    27    1
     6     2     3    2
     7     3     4    1
     8     4     5    1
     9     4    26    2
    10     5     6    2
    11     5     7   am
    12     7    23    1
    13     7     8    1
    14     8     9    1
    15     8    31    1
    16     8    32    1
    17     9    10    1
    18     9    11    1
    19     9    21    1
    20    11    12   am
    21    11    33    1
    22    12    13    2
    23    12    14    1
    24    14    20    1
    25    14    15    2
    26    15    16    1
    27    15    34    1
    28    16    17    2
    29    16    18   am
    30    18    19    1
    31    18    20    1
    32    19    35    1
    33    19    36    1
    34    19    37    1
    35    21    22    1
    36    21    38    1
    37    21    39    1
    38    22    23    1
    39    22    40    1
    40    22    41    1
    41    23    24    1
    42    23    25    1
    43    25    42    1
    44    25    43    1
    45    25    44    1
    46    26    27    1
    47    26    45    1
    48    27    46    1
@<TRIPOS>SUBSTRUCTURE
     1 ZINC001018118384        1 TEMP              0 ****  ****    0 ROOT


##########                                Name:    ZINC001009116151
##########                DOCK_Rotatable_Bonds:                   6
##########                         Heavy_Atoms:                  25
##########                    Molecular_Weight:             342.481
##########                DOCK_Rotatable_Bonds:                   6
##########                       Formal_Charge:           0.0600006
##########                     HBond_Acceptors:                   4
##########                        HBond_Donors:                   1
##########                         Heavy_Atoms:                  25
##########                          Grid_Score:          -27.457714
##########                     Grid_vdw_energy:          -26.102921
##########                      Grid_es_energy:           -1.354793
##########           Internal_energy_repulsive:           10.026676

@<TRIPOS>MOLECULE
ZINC001009116151
 55 59 1 0 0
SMALL
USER_CHARGES


@<TRIPOS>ATOM
      1 O1        -11.2350   -2.4035   52.8691 O.2     1  ZINC001009116151   -0.5400
      2 C2        -11.7402   -1.8994   53.8498 C.2     1  ZINC001009116151    0.5200
      3 N3        -11.8076   -0.5578   53.9588 N.am    1  ZINC001009116151   -0.7300
      4 C4        -11.2652    0.2917   52.8957 C.3     1  ZINC001009116151    0.1500
      5 C5         -9.7530    0.4349   53.0787 C.3     1  ZINC001009116151   -0.1200
      6 H6         -9.2137   -0.4924   53.2725 H       1  ZINC001009116151    0.1100
      7 C7         -9.2426    1.7039   53.7641 C.3     1  ZINC001009116151   -0.1700
      8 H8         -9.9573    2.4264   54.1580 H       1  ZINC001009116151    0.1200
      9 C9         -7.8338    1.6739   54.3951 C.3     1  ZINC001009116151    0.1300
     10 N10        -6.9206    2.0423   53.2882 N.am    1  ZINC001009116151   -0.6200
     11 C11        -5.8303    2.8326   53.3443 C.2     1  ZINC001009116151    0.5500
     12 O12        -5.1807    3.0418   52.3417 O.2     1  ZINC001009116151   -0.5300
     13 C13        -5.4186    3.4565   54.6528 C.3     1  ZINC001009116151   -0.1200
     14 C14        -3.9206    3.8398   54.6381 C.3     1  ZINC001009116151   -0.0900
     15 C15        -3.8980    5.2840   54.1943 C.2     1  ZINC001009116151   -0.1800
     16 C16        -5.0789    5.8286   54.3062 C.2     1  ZINC001009116151   -0.1500
     17 C17        -6.0860    4.8384   54.8433 C.3     1  ZINC001009116151   -0.0900
     18 C18        -7.4777    1.3448   52.1059 C.3     1  ZINC001009116151    0.1200
     19 C19        -9.0404    1.5048   52.2490 C.3     1  ZINC001009116151   -0.1600
     20 H20        -9.5600    2.0898   51.4901 H       1  ZINC001009116151    0.1300
     21 C21       -12.2982   -2.7733   54.9435 C.3     1  ZINC001009116151   -0.0700
     22 C22       -12.9809   -3.9937   54.3228 C.3     1  ZINC001009116151   -0.1100
     23 C23       -13.5474   -4.8808   55.4331 C.3     1  ZINC001009116151   -0.1100
     24 C24       -13.2424   -4.2518   56.7941 C.3     1  ZINC001009116151   -0.0900
     25 C25       -11.7279   -4.1218   56.9679 C.3     1  ZINC001009116151   -0.1100
     26 C26       -11.1614   -3.2347   55.8576 C.3     1  ZINC001009116151   -0.0900
     27 C27       -13.8853   -2.8656   56.8708 C.3     1  ZINC001009116151   -0.1100
     28 C28       -13.3188   -1.9785   55.7604 C.3     1  ZINC001009116151   -0.1000
     29 H29       -12.2152   -0.1546   54.7413 H       1  ZINC001009116151    0.4000
     30 H30       -11.4726   -0.1620   51.9266 H       1  ZINC001009116151    0.0800
     31 H31       -11.7317    1.2757   52.9433 H       1  ZINC001009116151    0.0700
     32 H32        -7.7638    2.4015   55.2036 H       1  ZINC001009116151    0.0900
     33 H33        -7.6027    0.6737   54.7616 H       1  ZINC001009116151    0.0800
     34 H34        -5.6454    2.7940   55.4882 H       1  ZINC001009116151    0.1100
     35 H35        -3.4939    3.7427   55.6364 H       1  ZINC001009116151    0.0900
     36 H36        -3.3761    3.2162   53.9291 H       1  ZINC001009116151    0.0800
     37 H37        -3.0200    5.7982   53.8323 H       1  ZINC001009116151    0.1300
     38 H38        -5.3063    6.8525   54.0490 H       1  ZINC001009116151    0.1300
     39 H39        -7.0138    4.8936   54.2738 H       1  ZINC001009116151    0.0900
     40 H40        -6.2764    5.0258   55.9000 H       1  ZINC001009116151    0.0900
     41 H41        -7.1390    1.8241   51.1873 H       1  ZINC001009116151    0.0900
     42 H42        -7.1910    0.2932   52.1149 H       1  ZINC001009116151    0.0800
     43 H43       -13.7908   -3.6649   53.6716 H       1  ZINC001009116151    0.0700
     44 H44       -12.2538   -4.5599   53.7407 H       1  ZINC001009116151    0.0700
     45 H45       -14.6265   -4.9734   55.3093 H       1  ZINC001009116151    0.0700
     46 H46       -13.0894   -5.8684   55.3785 H       1  ZINC001009116151    0.0700
     47 H47       -13.6460   -4.8839   57.5851 H       1  ZINC001009116151    0.0700
     48 H48       -11.5106   -3.6737   57.9375 H       1  ZINC001009116151    0.0700
     49 H49       -11.2698   -5.1094   56.9132 H       1  ZINC001009116151    0.0700
     50 H50       -10.4342   -3.8010   55.2755 H       1  ZINC001009116151    0.0700
     51 H51       -10.6750   -2.3652   56.2997 H       1  ZINC001009116151    0.0700
     52 H52       -14.9644   -2.9581   56.7469 H       1  ZINC001009116151    0.0700
     53 H53       -13.6680   -2.4175   57.8404 H       1  ZINC001009116151    0.0700
     54 H54       -12.8325   -1.1090   56.2027 H       1  ZINC001009116151    0.0700
     55 H55       -14.1287   -1.6497   55.1092 H       1  ZINC001009116151    0.0700
@<TRIPOS>BOND
     1     1     2    2
     2     2     3   am
     3     2    21    1
     4     3     4    1
     5     3    29    1
     6     4     5    1
     7     4    30    1
     8     4    31    1
     9     5     6    1
    10     5    19    1
    11     5     7    1
    12     7     8    1
    13     7    19    1
    14     7     9    1
    15     9    10    1
    16     9    32    1
    17     9    33    1
    18    10    11   am
    19    10    18    1
    20    11    12    2
    21    11    13    1
    22    13    17    1
    23    13    14    1
    24    13    34    1
    25    14    15    1
    26    14    35    1
    27    14    36    1
    28    15    16    2
    29    15    37    1
    30    16    17    1
    31    16    38    1
    32    17    39    1
    33    17    40    1
    34    18    19    1
    35    18    41    1
    36    18    42    1
    37    19    20    1
    38    21    26    1
    39    21    28    1
    40    21    22    1
    41    22    23    1
    42    22    43    1
    43    22    44    1
    44    23    24    1
    45    23    45    1
    46    23    46    1
    47    24    25    1
    48    24    27    1
    49    24    47    1
    50    25    26    1
    51    25    48    1
    52    25    49    1
    53    26    50    1
    54    26    51    1
    55    27    28    1
    56    27    52    1
    57    27    53    1
    58    28    54    1
    59    28    55    1
@<TRIPOS>SUBSTRUCTURE
     1 ZINC001009116151        1 TEMP              0 ****  ****    0 ROOT


##########                                Name:    ZINC000768148687
##########                DOCK_Rotatable_Bonds:                   8
##########                         Heavy_Atoms:                  25
##########                    Molecular_Weight:             371.307
##########                DOCK_Rotatable_Bonds:                   8
##########                       Formal_Charge:         2.98023e-08
##########                     HBond_Acceptors:                  11
##########                        HBond_Donors:                   0
##########                         Heavy_Atoms:                  25
##########                          Grid_Score:          -27.443562
##########                     Grid_vdw_energy:          -26.512583
##########                      Grid_es_energy:           -0.930978
##########           Internal_energy_repulsive:            8.774581

@<TRIPOS>MOLECULE
ZINC000768148687
 43 44 1 0 0
SMALL
USER_CHARGES


@<TRIPOS>ATOM
      1 C1         -6.3830   -1.6489   51.4130 C.3     1  ZINC000768148687   -0.1800
      2 C2         -6.9193   -0.3511   52.0204 C.3     1  ZINC000768148687    0.1100
      3 N3         -8.1974   -0.6151   52.6860 N.pl3   1  ZINC000768148687   -0.3100
      4 N4         -9.1089   -1.6178   52.3371 N.2     1  ZINC000768148687   -0.2000
      5 C5        -10.1322   -1.5584   53.1438 C.2     1  ZINC000768148687    0.0200
      6 C6        -11.3388   -2.4607   53.1118 C.3     1  ZINC000768148687    0.5500
      7 F7        -12.4993   -1.6844   53.0240 F       1  ZINC000768148687   -0.1600
      8 F8        -11.2588   -3.3071   52.0008 F       1  ZINC000768148687   -0.1600
      9 F9        -11.3785   -3.2280   54.2809 F       1  ZINC000768148687   -0.1500
     10 C10        -9.9109   -0.4993   54.0533 C.2     1  ZINC000768148687   -0.1800
     11 C11       -10.8119   -0.0759   55.1387 C.2     1  ZINC000768148687    0.5300
     12 O12       -11.5453    0.8803   54.9814 O.2     1  ZINC000768148687   -0.4700
     13 O13       -10.8232   -0.7487   56.3063 O.3     1  ZINC000768148687   -0.3400
     14 C14       -11.7485   -0.2859   57.3249 C.3     1  ZINC000768148687    0.0200
     15 C15       -11.7889   -1.2955   58.4737 C.3     1  ZINC000768148687    0.0600
     16 N16       -10.9440   -0.8172   59.5761 N.3     1  ZINC000768148687   -0.5300
     17 C17        -9.5246   -0.8250   59.1937 C.3     1  ZINC000768148687    0.0100
     18 C18        -8.6877   -0.2647   60.3468 C.3     1  ZINC000768148687    0.0600
     19 O19        -8.9348   -1.0346   61.5264 O.3     1  ZINC000768148687   -0.3800
     20 C20       -10.3074   -1.0482   61.9280 C.3     1  ZINC000768148687    0.0600
     21 C21       -11.1606   -1.6165   60.7909 C.3     1  ZINC000768148687    0.0100
     22 C22        -8.6884    0.0606   53.7367 C.2     1  ZINC000768148687    0.0600
     23 C23        -8.0316    1.2227   54.4360 C.3     1  ZINC000768148687    0.3400
     24 F24        -8.6727    2.4107   54.0689 F       1  ZINC000768148687   -0.1700
     25 F25        -8.1286    1.0491   55.8207 F       1  ZINC000768148687   -0.1800
     26 H26        -5.4320   -1.4525   50.9178 H       1  ZINC000768148687    0.0900
     27 H27        -6.2360   -2.3860   52.2025 H       1  ZINC000768148687    0.0700
     28 H28        -7.0987   -2.0329   50.6861 H       1  ZINC000768148687    0.0700
     29 H29        -6.2037    0.0329   52.7473 H       1  ZINC000768148687    0.1100
     30 H30        -7.0663    0.3860   51.2309 H       1  ZINC000768148687    0.1200
     31 H31       -11.4184    0.6817   57.7030 H       1  ZINC000768148687    0.0800
     32 H32       -12.7444   -0.1868   56.8931 H       1  ZINC000768148687    0.0800
     33 H33       -12.8151   -1.4062   58.8242 H       1  ZINC000768148687    0.1100
     34 H34       -11.4186   -2.2591   58.1238 H       1  ZINC000768148687    0.0900
     35 H35        -9.2110   -1.8466   58.9793 H       1  ZINC000768148687    0.0500
     36 H36        -9.3831   -0.2066   58.3073 H       1  ZINC000768148687    0.0900
     37 H37        -7.6300   -0.3215   60.0900 H       1  ZINC000768148687    0.1000
     38 H38        -8.9643    0.7744   60.5257 H       1  ZINC000768148687    0.0600
     39 H39       -10.4209   -1.6717   62.8148 H       1  ZINC000768148687    0.1000
     40 H40       -10.6310   -0.0320   62.1529 H       1  ZINC000768148687    0.0600
     41 H41       -12.2133   -1.5759   61.0705 H       1  ZINC000768148687    0.0800
     42 H42       -10.8731   -2.6508   60.6021 H       1  ZINC000768148687    0.0700
     43 H43        -6.9813    1.2730   54.1488 H       1  ZINC000768148687    0.1500
@<TRIPOS>BOND
     1     1     2    1
     2     1    26    1
     3     1    27    1
     4     1    28    1
     5     2     3    1
     6     2    29    1
     7     2    30    1
     8     3    22    1
     9     3     4    1
    10     4     5    2
    11     5     6    1
    12     5    10    1
    13     6     7    1
    14     6     8    1
    15     6     9    1
    16    10    11    1
    17    10    22    2
    18    11    12    2
    19    11    13    1
    20    13    14    1
    21    14    15    1
    22    14    31    1
    23    14    32    1
    24    15    16    1
    25    15    33    1
    26    15    34    1
    27    16    21    1
    28    16    17    1
    29    17    18    1
    30    17    35    1
    31    17    36    1
    32    18    19    1
    33    18    37    1
    34    18    38    1
    35    19    20    1
    36    20    21    1
    37    20    39    1
    38    20    40    1
    39    21    41    1
    40    21    42    1
    41    22    23    1
    42    23    24    1
    43    23    25    1
    44    23    43    1
@<TRIPOS>SUBSTRUCTURE
     1 ZINC000768148687        1 TEMP              0 ****  ****    0 ROOT


##########                                Name:    ZINC000750807956
##########                DOCK_Rotatable_Bonds:                  11
##########                         Heavy_Atoms:                  26
##########                    Molecular_Weight:             368.473
##########                DOCK_Rotatable_Bonds:                  11
##########                       Formal_Charge:        -8.12113e-07
##########                     HBond_Acceptors:                   7
##########                        HBond_Donors:                   1
##########                         Heavy_Atoms:                  26
##########                          Grid_Score:          -27.442833
##########                     Grid_vdw_energy:          -27.248468
##########                      Grid_es_energy:           -0.194364
##########           Internal_energy_repulsive:          100.443687

@<TRIPOS>MOLECULE
ZINC000750807956
 58 59 1 0 0
SMALL
USER_CHARGES


@<TRIPOS>ATOM
      1 C1         -0.9503    2.5341   47.8138 C.3     1  ZINC000750807956   -0.1500
      2 C2         -1.4089    1.6515   48.9764 C.3     1  ZINC000750807956    0.0700
      3 O3         -2.4039    2.3614   49.7600 O.3     1  ZINC000750807956   -0.3600
      4 C4         -2.2847    2.3009   51.0956 C.2     1  ZINC000750807956    0.4800
      5 O5         -1.9623    1.2647   51.6269 O.2     1  ZINC000750807956   -0.4900
      6 C6         -2.5529    3.5251   51.9324 C.3     1  ZINC000750807956    0.1600
      7 H7         -2.4390    4.4191   51.3191 H       1  ZINC000750807956    0.1000
      8 C8         -1.5639    3.5750   53.1012 C.3     1  ZINC000750807956   -0.1300
      9 C9         -1.9285    4.7407   54.0234 C.3     1  ZINC000750807956   -0.1200
     10 C10        -3.3343    4.5257   54.5888 C.3     1  ZINC000750807956   -0.1400
     11 C11        -4.3433    4.4866   53.4367 C.3     1  ZINC000750807956    0.1100
     12 N12        -3.9198    3.4660   52.4678 N.am    1  ZINC000750807956   -0.6100
     13 C13        -4.7674    2.4919   52.0820 C.2     1  ZINC000750807956    0.5100
     14 O14        -4.4059    1.6554   51.2816 O.2     1  ZINC000750807956   -0.5000
     15 C15        -6.1644    2.4419   52.6450 C.3     1  ZINC000750807956   -0.1400
     16 C16        -7.0223    1.4999   51.7978 C.3     1  ZINC000750807956    0.2100
     17 H17        -6.7124    1.5655   50.7549 H       1  ZINC000750807956    0.1000
     18 N18        -8.4309    1.8852   51.9138 N.am    1  ZINC000750807956   -0.7000
     19 C19        -9.0444    1.8435   53.1131 C.2     1  ZINC000750807956    0.6600
     20 O20        -8.4287    1.4877   54.0985 O.2     1  ZINC000750807956   -0.5600
     21 O21       -10.3393    2.1961   53.2195 O.3     1  ZINC000750807956   -0.3700
     22 C22       -10.9408    2.1066   54.5381 C.3     1  ZINC000750807956    0.1400
     23 C23       -10.1819    3.0150   55.5075 C.3     1  ZINC000750807956   -0.1800
     24 C24       -12.4032    2.5498   54.4628 C.3     1  ZINC000750807956   -0.1400
     25 C25       -10.8709    0.6607   55.0334 C.3     1  ZINC000750807956   -0.1800
     26 C26        -6.8440    0.0634   52.2935 C.3     1  ZINC000750807956   -0.1800
     27 C27        -7.9558   -0.9376   51.9731 C.3     1  ZINC000750807956   -0.1700
     28 C28        -6.6148   -1.0235   51.2415 C.3     1  ZINC000750807956   -0.1800
     29 H29        -0.5159    3.4540   48.2055 H       1  ZINC000750807956    0.0600
     30 H30        -0.2034    2.0011   47.2256 H       1  ZINC000750807956    0.0800
     31 H31        -1.8051    2.7762   47.1823 H       1  ZINC000750807956    0.0700
     32 H32        -1.8434    0.7316   48.5848 H       1  ZINC000750807956    0.0700
     33 H33        -0.5541    1.4094   49.6079 H       1  ZINC000750807956    0.0600
     34 H34        -1.6133    2.6402   53.6597 H       1  ZINC000750807956    0.0800
     35 H35        -0.5537    3.7170   52.7174 H       1  ZINC000750807956    0.0800
     36 H36        -1.2116    4.7935   54.8428 H       1  ZINC000750807956    0.0800
     37 H37        -1.9030    5.6724   53.4583 H       1  ZINC000750807956    0.0700
     38 H38        -3.3671    3.5819   55.1333 H       1  ZINC000750807956    0.0700
     39 H39        -3.5842    5.3443   55.2637 H       1  ZINC000750807956    0.0800
     40 H40        -5.3306    4.2355   53.8242 H       1  ZINC000750807956    0.0900
     41 H41        -4.3772    5.4601   52.9476 H       1  ZINC000750807956    0.0800
     42 H42        -6.1296    2.0773   53.6715 H       1  ZINC000750807956    0.1200
     43 H43        -6.5985    3.4417   52.6290 H       1  ZINC000750807956    0.1100
     44 H44        -8.9221    2.1705   51.1275 H       1  ZINC000750807956    0.4000
     45 H45       -10.2316    4.0451   55.1547 H       1  ZINC000750807956    0.0600
     46 H46       -10.6333    2.9477   56.4974 H       1  ZINC000750807956    0.0700
     47 H47        -9.1400    2.6992   55.5612 H       1  ZINC000750807956    0.0900
     48 H48       -12.9439    1.9027   53.7721 H       1  ZINC000750807956    0.0700
     49 H49       -12.8547    2.4826   55.4526 H       1  ZINC000750807956    0.0800
     50 H50       -12.4530    3.5800   54.1099 H       1  ZINC000750807956    0.0700
     51 H51        -9.8290    0.3449   55.0871 H       1  ZINC000750807956    0.0900
     52 H52       -11.3224    0.5935   56.0232 H       1  ZINC000750807956    0.0700
     53 H53       -11.4116    0.0135   54.3428 H       1  ZINC000750807956    0.0600
     54 H54        -6.3295   -0.0439   53.2485 H       1  ZINC000750807956    0.1100
     55 H55        -8.1732   -1.7037   52.7174 H       1  ZINC000750807956    0.0900
     56 H56        -8.8143   -0.5727   51.4092 H       1  ZINC000750807956    0.0900
     57 H57        -6.5911   -0.7153   50.1962 H       1  ZINC000750807956    0.1200
     58 H58        -5.9499   -1.8462   51.5045 H       1  ZINC000750807956    0.0900
@<TRIPOS>BOND
     1     1     2    1
     2     1    29    1
     3     1    30    1
     4     1    31    1
     5     2     3    1
     6     2    32    1
     7     2    33    1
     8     3     4    1
     9     4     5    2
    10     4     6    1
    11     6     7    1
    12     6    12    1
    13     6     8    1
    14     8     9    1
    15     8    34    1
    16     8    35    1
    17     9    10    1
    18     9    36    1
    19     9    37    1
    20    10    11    1
    21    10    38    1
    22    10    39    1
    23    11    12    1
    24    11    40    1
    25    11    41    1
    26    12    13   am
    27    13    14    2
    28    13    15    1
    29    15    16    1
    30    15    42    1
    31    15    43    1
    32    16    17    1
    33    16    18    1
    34    16    26    1
    35    18    19   am
    36    18    44    1
    37    19    20    2
    38    19    21    1
    39    21    22    1
    40    22    23    1
    41    22    24    1
    42    22    25    1
    43    23    45    1
    44    23    46    1
    45    23    47    1
    46    24    48    1
    47    24    49    1
    48    24    50    1
    49    25    51    1
    50    25    52    1
    51    25    53    1
    52    26    28    1
    53    26    27    1
    54    26    54    1
    55    27    28    1
    56    27    55    1
    57    27    56    1
    58    28    57    1
    59    28    58    1
@<TRIPOS>SUBSTRUCTURE
     1 ZINC000750807956        1 TEMP              0 ****  ****    0 ROOT


##########                                Name:    ZINC000915315870
##########                DOCK_Rotatable_Bonds:                   4
##########                         Heavy_Atoms:                  24
##########                    Molecular_Weight:             357.381
##########                DOCK_Rotatable_Bonds:                   4
##########                       Formal_Charge:           0.0300002
##########                     HBond_Acceptors:                   9
##########                        HBond_Donors:                   1
##########                         Heavy_Atoms:                  24
##########                          Grid_Score:          -27.439768
##########                     Grid_vdw_energy:          -26.942711
##########                      Grid_es_energy:           -0.497056
##########           Internal_energy_repulsive:           35.296680

@<TRIPOS>MOLECULE
ZINC000915315870
 41 43 1 0 0
SMALL
USER_CHARGES


@<TRIPOS>ATOM
      1 C1          3.9736    4.1295   44.2774 C.3     1  ZINC000915315870    0.0300
      2 O2          4.0005    2.7875   44.7679 O.3     1  ZINC000915315870   -0.3200
      3 C3          2.8288    2.2765   45.2325 C.ar    1  ZINC000915315870    0.0800
      4 C4          2.7770    0.9711   45.7026 C.ar    1  ZINC000915315870    0.0900
      5 F5          3.8910    0.2067   45.6997 F       1  ZINC000915315870   -0.1100
      6 C6          1.5835    0.4541   46.1747 C.ar    1  ZINC000915315870   -0.0500
      7 C7          0.4431    1.2357   46.1780 C.ar    1  ZINC000915315870   -0.6300
      8 S8         -1.0749    0.5735   46.7793 S.o2    1  ZINC000915315870    2.7000
      9 O9         -2.0768    1.5385   46.4888 O.2     1  ZINC000915315870   -0.9400
     10 O10        -1.1350   -0.7709   46.3228 O.2     1  ZINC000915315870   -0.9400
     11 N11        -0.9590    0.5022   48.4297 N.am    1  ZINC000915315870   -1.1100
     12 C12        -0.7357    1.7269   49.2020 C.3     1  ZINC000915315870    0.2400
     13 H13        -0.4681    2.5419   48.5296 H       1  ZINC000915315870    0.0900
     14 C14        -2.0097    2.0908   49.9750 C.3     1  ZINC000915315870   -0.1400
     15 C15        -1.7090    3.2195   50.9635 C.3     1  ZINC000915315870   -0.1100
     16 C16        -0.8580    2.6820   52.1208 C.3     1  ZINC000915315870   -0.0400
     17 C17         0.3174    1.9373   51.5355 C.2     1  ZINC000915315870    0.0900
     18 N18         1.4226    1.5843   52.1247 N.2     1  ZINC000915315870   -0.2900
     19 N19         2.2234    0.9159   51.1862 N.pl3   1  ZINC000915315870   -0.3800
     20 C20         3.5526    0.3522   51.4343 C.3     1  ZINC000915315870    0.1000
     21 C21         1.5524    0.8829   50.0129 C.2     1  ZINC000915315870    0.0800
     22 C22         0.3743    1.5045   50.1995 C.2     1  ZINC000915315870   -0.2500
     23 C23         0.4915    2.5361   45.7110 C.ar    1  ZINC000915315870   -0.0500
     24 C24         1.6832    3.0609   45.2430 C.ar    1  ZINC000915315870    0.1000
     25 F25         1.7298    4.3316   44.7868 F       1  ZINC000915315870   -0.1100
     26 H26         4.9702    4.4123   43.9384 H       1  ZINC000915315870    0.1100
     27 H27         3.2736    4.1980   43.4448 H       1  ZINC000915315870    0.0600
     28 H28         3.6567    4.8015   45.0748 H       1  ZINC000915315870    0.0500
     29 H29         1.5426   -0.5612   46.5405 H       1  ZINC000915315870    0.1700
     30 H30        -1.0389   -0.3505   48.8852 H       1  ZINC000915315870    0.4200
     31 H31        -2.7781    2.4175   49.2743 H       1  ZINC000915315870    0.0900
     32 H32        -2.3652    1.2164   50.5201 H       1  ZINC000915315870    0.0800
     33 H33        -1.1653    4.0139   50.4523 H       1  ZINC000915315870    0.0700
     34 H34        -2.6451    3.6166   51.3561 H       1  ZINC000915315870    0.0800
     35 H35        -0.5009    3.5116   52.7308 H       1  ZINC000915315870    0.0800
     36 H36        -1.4545    2.0051   52.7324 H       1  ZINC000915315870    0.0900
     37 H37         3.4529   -0.6811   51.7663 H       1  ZINC000915315870    0.0800
     38 H38         4.1379    0.3837   50.5153 H       1  ZINC000915315870    0.0900
     39 H39         4.0560    0.9347   52.2059 H       1  ZINC000915315870    0.0900
     40 H40         1.8996    0.4379   49.0920 H       1  ZINC000915315870    0.1700
     41 H41        -0.4009    3.1443   45.7152 H       1  ZINC000915315870    0.1700
@<TRIPOS>BOND
     1     1     2    1
     2     1    26    1
     3     1    27    1
     4     1    28    1
     5     2     3    1
     6     3    24   ar
     7     3     4   ar
     8     4     5    1
     9     4     6   ar
    10     6     7   ar
    11     6    29    1
    12     7     8    1
    13     7    23   ar
    14     8     9    2
    15     8    10    2
    16     8    11   am
    17    11    12    1
    18    11    30    1
    19    12    13    1
    20    12    22    1
    21    12    14    1
    22    14    15    1
    23    14    31    1
    24    14    32    1
    25    15    16    1
    26    15    33    1
    27    15    34    1
    28    16    17    1
    29    16    35    1
    30    16    36    1
    31    17    22    1
    32    17    18    2
    33    18    19    1
    34    19    20    1
    35    19    21    1
    36    20    37    1
    37    20    38    1
    38    20    39    1
    39    21    22    2
    40    21    40    1
    41    23    24   ar
    42    23    41    1
    43    24    25    1
@<TRIPOS>SUBSTRUCTURE
     1 ZINC000915315870        1 TEMP              0 ****  ****    0 ROOT


##########                                Name:    ZINC000986832075
##########                DOCK_Rotatable_Bonds:                   7
##########                         Heavy_Atoms:                  25
##########                    Molecular_Weight:             347.433
##########                DOCK_Rotatable_Bonds:                   7
##########                       Formal_Charge:          -0.0200006
##########                     HBond_Acceptors:                   6
##########                        HBond_Donors:                   1
##########                         Heavy_Atoms:                  25
##########                          Grid_Score:          -27.425592
##########                     Grid_vdw_energy:          -27.360785
##########                      Grid_es_energy:           -0.064808
##########           Internal_energy_repulsive:           38.689240

@<TRIPOS>MOLECULE
ZINC000986832075
 51 53 1 0 0
SMALL
USER_CHARGES


@<TRIPOS>ATOM
      1 C1        -12.8073   -1.5741   52.9018 C.3     1  ZINC000986832075   -0.1700
      2 C2        -11.6441   -2.0929   53.7495 C.3     1  ZINC000986832075    0.1500
      3 H3        -11.3251   -3.0647   53.3727 H       1  ZINC000986832075    0.0900
      4 N4        -10.5261   -1.1492   53.6744 N.am    1  ZINC000986832075   -0.7200
      5 C5         -9.5650   -1.3155   52.7444 C.2     1  ZINC000986832075    0.5600
      6 O6         -9.6264   -2.2477   51.9670 O.2     1  ZINC000986832075   -0.5100
      7 C7         -8.4347   -0.3630   52.6697 C.ar    1  ZINC000986832075   -0.1300
      8 C8         -8.4272    0.8057   53.4379 C.ar    1  ZINC000986832075   -0.1100
      9 C9         -7.3523    1.6668   53.3375 C.ar    1  ZINC000986832075    0.0900
     10 N10        -6.3430    1.4011   52.5321 N.ar    1  ZINC000986832075   -0.4400
     11 C11        -6.3072    0.3130   51.7900 C.ar    1  ZINC000986832075    0.0700
     12 C12        -7.3393   -0.6095   51.8319 C.ar    1  ZINC000986832075    0.1100
     13 F13        -7.2960   -1.7231   51.0683 F       1  ZINC000986832075   -0.1000
     14 C14       -12.0961   -2.2334   55.2044 C.3     1  ZINC000986832075   -0.1000
     15 C15       -11.2645   -3.3173   55.8942 C.3     1  ZINC000986832075   -0.1300
     16 C16       -11.7429   -3.4793   57.3406 C.3     1  ZINC000986832075    0.1100
     17 N17       -11.6959   -2.1691   58.0037 N.am    1  ZINC000986832075   -0.6100
     18 C18       -11.0309   -2.0109   59.1652 C.2     1  ZINC000986832075    0.5200
     19 O19       -10.4640   -2.9551   59.6729 O.2     1  ZINC000986832075   -0.5300
     20 C20       -10.9919   -0.6606   59.8332 C.3     1  ZINC000986832075   -0.0800
     21 H21       -10.8581    0.1144   59.0785 H       1  ZINC000986832075    0.0900
     22 C22        -9.8264   -0.6148   60.8234 C.3     1  ZINC000986832075   -0.1400
     23 C23       -12.3057   -0.4232   60.5806 C.3     1  ZINC000986832075   -0.1400
     24 C24       -13.3418   -1.5489   60.5632 C.3     1  ZINC000986832075   -0.1800
     25 C25       -12.5592   -1.2492   61.8433 C.3     1  ZINC000986832075   -0.1700
     26 C26       -12.3874   -1.0346   57.3763 C.3     1  ZINC000986832075    0.1000
     27 C27       -11.9017   -0.9000   55.9298 C.3     1  ZINC000986832075   -0.1300
     28 H28       -12.4852   -1.4741   51.8652 H       1  ZINC000986832075    0.0600
     29 H29       -13.6391   -2.2764   52.9577 H       1  ZINC000986832075    0.0700
     30 H30       -13.1263   -0.6023   53.2786 H       1  ZINC000986832075    0.0600
     31 H31       -10.4776   -0.4044   54.2941 H       1  ZINC000986832075    0.4000
     32 H32        -9.2501    1.0314   54.0999 H       1  ZINC000986832075    0.1500
     33 H33        -7.3386    2.5714   53.9272 H       1  ZINC000986832075    0.1700
     34 H34        -5.4600    0.1361   51.1439 H       1  ZINC000986832075    0.1800
     35 H35       -13.1496   -2.5117   55.2322 H       1  ZINC000986832075    0.0800
     36 H36       -11.3851   -4.2615   55.3632 H       1  ZINC000986832075    0.0700
     37 H37       -10.2136   -3.0280   55.8889 H       1  ZINC000986832075    0.0800
     38 H38       -12.7659   -3.8556   57.3470 H       1  ZINC000986832075    0.0700
     39 H39       -11.0911   -4.1779   57.8650 H       1  ZINC000986832075    0.0900
     40 H40        -9.9131   -1.4444   61.5251 H       1  ZINC000986832075    0.0600
     41 H41        -8.8848   -0.6954   60.2802 H       1  ZINC000986832075    0.0600
     42 H42        -9.8510    0.3278   61.3702 H       1  ZINC000986832075    0.0700
     43 H43       -12.6757    0.6020   60.5671 H       1  ZINC000986832075    0.1100
     44 H44       -14.3937   -1.2644   60.5380 H       1  ZINC000986832075    0.1000
     45 H45       -13.0875   -2.4586   60.0192 H       1  ZINC000986832075    0.0900
     46 H46       -11.7902   -1.9617   62.1415 H       1  ZINC000986832075    0.0900
     47 H47       -13.0964   -0.7675   62.6603 H       1  ZINC000986832075    0.1000
     48 H48       -13.4628   -1.2115   57.3857 H       1  ZINC000986832075    0.0700
     49 H49       -12.1606   -0.1200   57.9245 H       1  ZINC000986832075    0.0900
     50 H50       -10.8448   -0.6335   55.9241 H       1  ZINC000986832075    0.0800
     51 H51       -12.4758   -0.1237   55.4240 H       1  ZINC000986832075    0.0800
@<TRIPOS>BOND
     1     1     2    1
     2     1    28    1
     3     1    29    1
     4     1    30    1
     5     2     3    1
     6     2     4    1
     7     2    14    1
     8     4     5   am
     9     4    31    1
    10     5     6    2
    11     5     7    1
    12     7    12   ar
    13     7     8   ar
    14     8     9   ar
    15     8    32    1
    16     9    10   ar
    17     9    33    1
    18    10    11   ar
    19    11    12   ar
    20    11    34    1
    21    12    13    1
    22    14    27    1
    23    14    15    1
    24    14    35    1
    25    15    16    1
    26    15    36    1
    27    15    37    1
    28    16    17    1
    29    16    38    1
    30    16    39    1
    31    17    18   am
    32    17    26    1
    33    18    19    2
    34    18    20    1
    35    20    21    1
    36    20    22    1
    37    20    23    1
    38    22    40    1
    39    22    41    1
    40    22    42    1
    41    23    25    1
    42    23    24    1
    43    23    43    1
    44    24    25    1
    45    24    44    1
    46    24    45    1
    47    25    46    1
    48    25    47    1
    49    26    27    1
    50    26    48    1
    51    26    49    1
    52    27    50    1
    53    27    51    1
@<TRIPOS>SUBSTRUCTURE
     1 ZINC000986832075        1 TEMP              0 ****  ****    0 ROOT


##########                                Name:    ZINC000566738344
##########                DOCK_Rotatable_Bonds:                   5
##########                         Heavy_Atoms:                  23
##########                    Molecular_Weight:             352.478
##########                DOCK_Rotatable_Bonds:                   5
##########                       Formal_Charge:           0.0100005
##########                     HBond_Acceptors:                   7
##########                        HBond_Donors:                   0
##########                         Heavy_Atoms:                  23
##########                          Grid_Score:          -27.399357
##########                     Grid_vdw_energy:          -25.771296
##########                      Grid_es_energy:           -1.628062
##########           Internal_energy_repulsive:           15.321489

@<TRIPOS>MOLECULE
ZINC000566738344
 43 44 1 0 0
SMALL
USER_CHARGES


@<TRIPOS>ATOM
      1 C1        -14.8293   -2.6282   62.0833 C.3     1  ZINC000566738344   -0.1300
      2 C2        -13.8061   -1.5275   61.9708 C.ar    1  ZINC000566738344   -0.0100
      3 C3        -12.5466   -1.8045   61.4911 C.ar    1  ZINC000566738344   -0.1000
      4 C4        -11.6003   -0.7879   61.3873 C.ar    1  ZINC000566738344   -0.0500
      5 S5         -9.9883   -1.1468   60.7732 S.3     1  ZINC000566738344   -0.0300
      6 C6        -10.0987   -0.6614   59.0287 C.3     1  ZINC000566738344   -0.1200
      7 H7        -10.8268    0.1424   58.9206 H       1  ZINC000566738344    0.1200
      8 C8         -8.7298   -0.1778   58.5463 C.3     1  ZINC000566738344   -0.1300
      9 C9        -10.5322   -1.8461   58.2042 C.2     1  ZINC000566738344    0.5200
     10 O10       -10.3962   -2.9700   58.6392 O.2     1  ZINC000566738344   -0.5000
     11 N11       -11.0711   -1.6565   56.9835 N.am    1  ZINC000566738344   -0.6000
     12 C12       -11.2336   -0.2990   56.4574 C.3     1  ZINC000566738344    0.0600
     13 C13       -11.4941   -2.8080   56.1827 C.3     1  ZINC000566738344    0.1500
     14 H14       -11.0909   -3.7235   56.6158 H       1  ZINC000566738344    0.1300
     15 C15       -13.0309   -2.8821   56.1546 C.3     1  ZINC000566738344   -0.1300
     16 C16       -13.4058   -3.8956   55.0428 C.3     1  ZINC000566738344   -0.5900
     17 S17       -12.2499   -3.4510   53.6916 S.o2    1  ZINC000566738344    2.4000
     18 O18       -11.7125   -4.6369   53.1223 O.2     1  ZINC000566738344   -0.9300
     19 O19       -12.8566   -2.4761   52.8545 O.2     1  ZINC000566738344   -0.9300
     20 C20       -10.9830   -2.6498   54.7369 C.3     1  ZINC000566738344   -0.6200
     21 C21       -11.9255    0.5116   61.7675 C.ar    1  ZINC000566738344   -0.1400
     22 C22       -13.1836    0.7950   62.2479 C.ar    1  ZINC000566738344   -0.0400
     23 C23       -14.1375   -0.2223   62.3484 C.ar    1  ZINC000566738344   -0.0400
     24 C24       -15.4475    0.0693   62.8480 C.1     1  ZINC000566738344    0.2500
     25 N25       -16.4868    0.3006   63.2443 N.1     1  ZINC000566738344   -0.4100
     26 H26       -15.3927   -2.6970   61.1527 H       1  ZINC000566738344    0.0800
     27 H27       -14.3245   -3.5754   62.2732 H       1  ZINC000566738344    0.0800
     28 H28       -15.5106   -2.4083   62.9052 H       1  ZINC000566738344    0.0700
     29 H29       -12.2914   -2.8113   61.1952 H       1  ZINC000566738344    0.1400
     30 H30        -8.0222   -1.0067   58.5708 H       1  ZINC000566738344    0.0800
     31 H31        -8.8154    0.1966   57.5261 H       1  ZINC000566738344    0.0800
     32 H32        -8.3762    0.6211   59.1980 H       1  ZINC000566738344    0.0900
     33 H33       -10.3379   -0.0134   55.9057 H       1  ZINC000566738344    0.0700
     34 H34       -12.0958   -0.2684   55.7911 H       1  ZINC000566738344    0.0800
     35 H35       -11.3882    0.3949   57.2836 H       1  ZINC000566738344    0.0800
     36 H36       -13.4056   -3.2290   57.1176 H       1  ZINC000566738344    0.1100
     37 H37       -13.4476   -1.9021   55.9224 H       1  ZINC000566738344    0.0900
     38 H38       -13.2342   -4.9185   55.3778 H       1  ZINC000566738344    0.1400
     39 H39       -14.4403   -3.7590   54.7275 H       1  ZINC000566738344    0.1400
     40 H40       -10.8919   -1.5946   54.4794 H       1  ZINC000566738344    0.1400
     41 H41       -10.0230   -3.1529   54.6207 H       1  ZINC000566738344    0.1500
     42 H42       -11.1896    1.2978   61.6854 H       1  ZINC000566738344    0.1200
     43 H43       -13.4351    1.8030   62.5430 H       1  ZINC000566738344    0.1400
@<TRIPOS>BOND
     1     1     2    1
     2     1    26    1
     3     1    27    1
     4     1    28    1
     5     2    23   ar
     6     2     3   ar
     7     3     4   ar
     8     3    29    1
     9     4     5    1
    10     4    21   ar
    11     5     6    1
    12     6     7    1
    13     6     8    1
    14     6     9    1
    15     8    30    1
    16     8    31    1
    17     8    32    1
    18     9    10    2
    19     9    11   am
    20    11    12    1
    21    11    13    1
    22    12    33    1
    23    12    34    1
    24    12    35    1
    25    13    14    1
    26    13    20    1
    27    13    15    1
    28    15    16    1
    29    15    36    1
    30    15    37    1
    31    16    17    1
    32    16    38    1
    33    16    39    1
    34    17    18    2
    35    17    19    2
    36    17    20    1
    37    20    40    1
    38    20    41    1
    39    21    22   ar
    40    21    42    1
    41    22    23   ar
    42    22    43    1
    43    23    24    1
    44    24    25    3
@<TRIPOS>SUBSTRUCTURE
     1 ZINC000566738344        1 TEMP              0 ****  ****    0 ROOT


##########                                Name:    ZINC000011498449
##########                DOCK_Rotatable_Bonds:                   5
##########                         Heavy_Atoms:                  21
##########                    Molecular_Weight:             331.198
##########                DOCK_Rotatable_Bonds:                   5
##########                       Formal_Charge:         1.30385e-07
##########                     HBond_Acceptors:                   7
##########                        HBond_Donors:                   1
##########                         Heavy_Atoms:                  21
##########                          Grid_Score:          -27.382212
##########                     Grid_vdw_energy:          -26.302263
##########                      Grid_es_energy:           -1.079949
##########           Internal_energy_repulsive:           10.501646

@<TRIPOS>MOLECULE
ZINC000011498449
 37 38 1 0 0
SMALL
USER_CHARGES


@<TRIPOS>ATOM
      1 C1         -0.3244    4.6442   54.2536 C.3     1  ZINC000011498449   -0.1500
      2 C2         -1.5977    3.8115   54.0907 C.3     1  ZINC000011498449    0.0700
      3 H3         -1.4524    2.8316   54.5454 H       1  ZINC000011498449    0.0600
      4 C4         -1.9117    3.6428   52.5997 C.3     1  ZINC000011498449    0.0800
      5 N5         -3.2316    3.0046   52.4729 N.am    1  ZINC000011498449   -0.6100
      6 C6         -3.4059    1.9208   51.6911 C.2     1  ZINC000011498449    0.5100
      7 O7         -4.5019    1.4099   51.5983 O.2     1  ZINC000011498449   -0.5300
      8 C8         -2.2389    1.3437   50.9321 C.3     1  ZINC000011498449    0.1000
      9 N9         -1.8724    2.2474   49.8388 N.am    1  ZINC000011498449   -0.7200
     10 C10        -0.7401    2.0344   49.1393 C.2     1  ZINC000011498449    0.5600
     11 O11        -0.0238    1.0917   49.4146 O.2     1  ZINC000011498449   -0.5100
     12 C12        -0.3697    2.9466   48.0382 C.ar    1  ZINC000011498449   -0.1300
     13 C13         0.1305    4.2193   48.3203 C.ar    1  ZINC000011498449   -0.0600
     14 C14         0.4750    5.0661   47.2882 C.ar    1  ZINC000011498449   -0.1100
     15 C15         0.3261    4.6574   45.9729 C.ar    1  ZINC000011498449    0.0000
     16 Cl16        0.7628    5.7301   44.6799 Cl      1  ZINC000011498449   -0.0400
     17 C17        -0.1694    3.3968   45.6853 C.ar    1  ZINC000011498449   -0.1100
     18 C18        -0.5130    2.5372   46.7095 C.ar    1  ZINC000011498449    0.0300
     19 Cl19       -1.1339    0.9570   46.3478 Cl      1  ZINC000011498449   -0.0100
     20 C20        -4.3555    3.5846   53.2253 C.3     1  ZINC000011498449    0.0700
     21 C21        -3.9223    3.7562   54.6856 C.3     1  ZINC000011498449    0.0500
     22 O22        -2.6890    4.4777   54.7302 O.3     1  ZINC000011498449   -0.3700
     23 H23        -0.1027    4.7654   55.3139 H       1  ZINC000011498449    0.0700
     24 H24         0.5067    4.1366   53.7643 H       1  ZINC000011498449    0.0800
     25 H25        -0.4703    5.6239   53.7987 H       1  ZINC000011498449    0.0700
     26 H26        -1.9278    4.6190   52.1152 H       1  ZINC000011498449    0.0800
     27 H27        -1.1534    3.0136   52.1338 H       1  ZINC000011498449    0.1000
     28 H28        -1.3900    1.2254   51.6057 H       1  ZINC000011498449    0.1000
     29 H29        -2.5161    0.3722   50.5230 H       1  ZINC000011498449    0.1000
     30 H30        -2.4446    2.9990   49.6184 H       1  ZINC000011498449    0.4100
     31 H31         0.2470    4.5399   49.3449 H       1  ZINC000011498449    0.1500
     32 H32         0.8617    6.0508   47.5057 H       1  ZINC000011498449    0.1500
     33 H33        -0.2832    3.0840   44.6579 H       1  ZINC000011498449    0.1500
     34 H34        -4.6177    4.5550   52.8036 H       1  ZINC000011498449    0.0900
     35 H35        -5.2155    2.9168   53.1734 H       1  ZINC000011498449    0.1000
     36 H36        -4.6877    4.3096   55.2298 H       1  ZINC000011498449    0.1100
     37 H37        -3.7865    2.7760   55.1427 H       1  ZINC000011498449    0.0600
@<TRIPOS>BOND
     1     1     2    1
     2     1    23    1
     3     1    24    1
     4     1    25    1
     5     2     3    1
     6     2    22    1
     7     2     4    1
     8     4     5    1
     9     4    26    1
    10     4    27    1
    11     5     6   am
    12     5    20    1
    13     6     7    2
    14     6     8    1
    15     8     9    1
    16     8    28    1
    17     8    29    1
    18     9    10   am
    19     9    30    1
    20    10    11    2
    21    10    12    1
    22    12    18   ar
    23    12    13   ar
    24    13    14   ar
    25    13    31    1
    26    14    15   ar
    27    14    32    1
    28    15    16    1
    29    15    17   ar
    30    17    18   ar
    31    17    33    1
    32    18    19    1
    33    20    21    1
    34    20    34    1
    35    20    35    1
    36    21    22    1
    37    21    36    1
    38    21    37    1
@<TRIPOS>SUBSTRUCTURE
     1 ZINC000011498449        1 TEMP              0 ****  ****    0 ROOT


##########                                Name:    ZINC000443933644
##########                DOCK_Rotatable_Bonds:                   8
##########                         Heavy_Atoms:                  27
##########                    Molecular_Weight:             402.438
##########                DOCK_Rotatable_Bonds:                   8
##########                       Formal_Charge:          0.00999922
##########                     HBond_Acceptors:                   9
##########                        HBond_Donors:                   2
##########                         Heavy_Atoms:                  27
##########                          Grid_Score:          -27.380379
##########                     Grid_vdw_energy:          -26.736156
##########                      Grid_es_energy:           -0.644222
##########           Internal_energy_repulsive:           36.023266

@<TRIPOS>MOLECULE
ZINC000443933644
 48 49 1 0 0
SMALL
USER_CHARGES


@<TRIPOS>ATOM
      1 C1         -6.8494    0.5207   52.0614 C.3     1  ZINC000443933644   -0.1500
      2 C2         -8.1346   -0.2350   52.4048 C.3     1  ZINC000443933644   -0.1400
      3 C3         -9.1101    0.7109   53.1081 C.3     1  ZINC000443933644   -0.1000
      4 H4         -9.4673    1.4575   52.3988 H       1  ZINC000443933644    0.1000
      5 C5         -8.3969    1.4091   54.2677 C.3     1  ZINC000443933644   -0.1700
      6 C6        -10.2973   -0.0894   53.6472 C.3     1  ZINC000443933644    0.1200
      7 H7         -9.9606   -0.7400   54.4544 H       1  ZINC000443933644    0.1300
      8 N8        -10.8676   -0.9026   52.5703 N.am    1  ZINC000443933644   -1.1100
      9 S9        -10.9292   -2.5506   52.7207 S.o2    1  ZINC000443933644    2.6900
     10 O10       -11.6625   -3.0286   51.6012 O.2     1  ZINC000443933644   -0.9400
     11 O11        -9.6074   -2.9756   53.0230 O.2     1  ZINC000443933644   -0.9400
     12 C12       -11.9046   -2.9083   54.1439 C.ar    1  ZINC000443933644   -0.7000
     13 C13       -13.2742   -2.5946   54.1544 C.ar    1  ZINC000443933644    0.0500
     14 C14       -13.8926   -1.9954   53.0433 C.ar    1  ZINC000443933644   -0.1400
     15 C15       -15.2216   -1.7053   53.0872 C.ar    1  ZINC000443933644   -0.0800
     16 C16       -15.9815   -1.9933   54.2192 C.ar    1  ZINC000443933644   -0.1200
     17 C17       -15.4159   -2.5731   55.3137 C.ar    1  ZINC000443933644   -0.0900
     18 C18       -14.0477   -2.8871   55.3047 C.ar    1  ZINC000443933644   -0.0900
     19 C19       -13.4271   -3.4883   56.4203 C.ar    1  ZINC000443933644    0.2300
     20 N20       -14.1699   -3.7850   57.5645 N.am    1  ZINC000443933644   -0.6700
     21 C21       -14.2303   -2.8981   58.5775 C.2     1  ZINC000443933644    0.5100
     22 C22       -15.0322   -3.2183   59.8127 C.3     1  ZINC000443933644   -0.1700
     23 O23       -13.6393   -1.8422   58.4950 O.2     1  ZINC000443933644   -0.5100
     24 C24       -12.0811   -3.7803   56.3700 C.ar    1  ZINC000443933644   -0.1600
     25 C25       -11.3330   -3.4941   55.2320 C.ar    1  ZINC000443933644    0.0400
     26 C26       -11.3620    0.8727   54.1782 C.3     1  ZINC000443933644    0.4300
     27 F27       -11.2064    2.1226   53.5694 F       1  ZINC000443933644   -0.1700
     28 F28       -12.6337    0.3674   53.8877 F       1  ZINC000443933644   -0.1600
     29 F29       -11.2191    1.0077   55.5634 F       1  ZINC000443933644   -0.1700
     30 H30        -7.0844    1.3563   51.4021 H       1  ZINC000443933644    0.0500
     31 H31        -6.3938    0.8975   52.9771 H       1  ZINC000443933644    0.0600
     32 H32        -6.1544   -0.1532   51.5604 H       1  ZINC000443933644    0.0600
     33 H33        -8.5903   -0.6118   51.4891 H       1  ZINC000443933644    0.0700
     34 H34        -7.8996   -1.0706   53.0641 H       1  ZINC000443933644    0.0900
     35 H35        -7.6251    2.0707   53.8741 H       1  ZINC000443933644    0.0700
     36 H36        -9.1185    1.9925   54.8397 H       1  ZINC000443933644    0.0600
     37 H37        -7.9389    0.6617   54.9154 H       1  ZINC000443933644    0.0700
     38 H38       -11.2091   -0.4756   51.7690 H       1  ZINC000443933644    0.4300
     39 H39       -13.3159   -1.7661   52.1593 H       1  ZINC000443933644    0.1400
     40 H40       -15.6941   -1.2446   52.2323 H       1  ZINC000443933644    0.1300
     41 H41       -17.0343   -1.7531   54.2286 H       1  ZINC000443933644    0.1300
     42 H42       -16.0168   -2.7901   56.1844 H       1  ZINC000443933644    0.1300
     43 H43       -14.6425   -4.6296   57.6305 H       1  ZINC000443933644    0.4200
     44 H44       -15.4880   -4.2025   59.7048 H       1  ZINC000443933644    0.0800
     45 H45       -14.3758   -3.2152   60.6829 H       1  ZINC000443933644    0.1000
     46 H46       -15.8126   -2.4688   59.9436 H       1  ZINC000443933644    0.1000
     47 H47       -11.6025   -4.2403   57.2218 H       1  ZINC000443933644    0.1500
     48 H48       -10.2796   -3.7318   55.2154 H       1  ZINC000443933644    0.1500
@<TRIPOS>BOND
     1     1     2    1
     2     1    30    1
     3     1    31    1
     4     1    32    1
     5     2     3    1
     6     2    33    1
     7     2    34    1
     8     3     4    1
     9     3     5    1
    10     3     6    1
    11     5    35    1
    12     5    36    1
    13     5    37    1
    14     6     7    1
    15     6     8    1
    16     6    26    1
    17     8     9   am
    18     8    38    1
    19     9    10    2
    20     9    11    2
    21     9    12    1
    22    12    25   ar
    23    12    13   ar
    24    13    18   ar
    25    13    14   ar
    26    14    15   ar
    27    14    39    1
    28    15    16   ar
    29    15    40    1
    30    16    17   ar
    31    16    41    1
    32    17    18   ar
    33    17    42    1
    34    18    19   ar
    35    19    20    1
    36    19    24   ar
    37    20    21   am
    38    20    43    1
    39    21    22    1
    40    21    23    2
    41    22    44    1
    42    22    45    1
    43    22    46    1
    44    24    25   ar
    45    24    47    1
    46    25    48    1
    47    26    27    1
    48    26    28    1
    49    26    29    1
@<TRIPOS>SUBSTRUCTURE
     1 ZINC000443933644        1 TEMP              0 ****  ****    0 ROOT


##########                                Name:    ZINC000876376999
##########                DOCK_Rotatable_Bonds:                   7
##########                         Heavy_Atoms:                  24
##########                    Molecular_Weight:             358.502
##########                DOCK_Rotatable_Bonds:                   7
##########                       Formal_Charge:          -0.0299994
##########                     HBond_Acceptors:                   7
##########                        HBond_Donors:                   2
##########                         Heavy_Atoms:                  24
##########                          Grid_Score:          -27.363241
##########                     Grid_vdw_energy:          -25.785938
##########                      Grid_es_energy:           -1.577302
##########           Internal_energy_repulsive:           33.548893

@<TRIPOS>MOLECULE
ZINC000876376999
 54 56 1 0 0
SMALL
USER_CHARGES


@<TRIPOS>ATOM
      1 C1         -5.9820    3.3045   54.5678 C.3     1  ZINC000876376999   -0.1500
      2 C2         -4.7279    3.8460   55.2571 C.3     1  ZINC000876376999   -0.1100
      3 C3         -3.6566    4.1435   54.2062 C.3     1  ZINC000876376999   -0.0700
      4 C4         -4.2532    5.0193   53.1025 C.3     1  ZINC000876376999    0.0900
      5 O5         -4.7149    6.2481   53.6668 O.3     1  ZINC000876376999   -0.5600
      6 C6         -2.4854    4.8770   54.8640 C.3     1  ZINC000876376999   -0.1100
      7 C7         -1.4278    5.2042   53.8073 C.3     1  ZINC000876376999   -0.1400
      8 C8         -0.9011    3.9013   53.1973 C.3     1  ZINC000876376999    0.1100
      9 N9         -2.0392    3.1222   52.6910 N.am    1  ZINC000876376999   -0.6300
     10 C10        -2.0592    2.6847   51.4164 C.2     1  ZINC000876376999    0.7100
     11 O11        -3.0069    2.0407   51.0094 O.2     1  ZINC000876376999   -0.5800
     12 N12        -1.0286    2.9609   50.5929 N.am    1  ZINC000876376999   -0.7500
     13 C13        -1.0503    2.4854   49.2074 C.3     1  ZINC000876376999    0.1400
     14 C14         0.3671    2.5432   48.6248 C.3     1  ZINC000876376999   -0.1100
     15 C15         1.1368    1.3045   48.9943 C.3     1  ZINC000876376999   -0.1100
     16 C16         1.2141    0.2161   47.9173 C.3     1  ZINC000876376999   -0.5200
     17 H17         1.7606   -0.6821   48.2372 H       1  ZINC000876376999    0.1500
     18 C18        -0.2300   -0.0854   47.4552 C.3     1  ZINC000876376999   -0.1200
     19 C19        -0.6988    0.9263   46.4151 C.3     1  ZINC000876376999   -0.1200
     20 C20         0.4015    1.9699   46.1143 C.3     1  ZINC000876376999   -0.5300
     21 H21         0.3441    2.3747   45.0943 H       1  ZINC000876376999    0.1500
     22 C22         0.3312    3.0435   47.2065 C.3     1  ZINC000876376999   -0.1000
     23 S23         1.9478    1.0224   46.4334 S.o2    1  ZINC000876376999    2.3700
     24 O24         2.9930    1.9033   46.8192 O.2     1  ZINC000876376999   -0.9300
     25 O25         2.1544    0.0624   45.4065 O.2     1  ZINC000876376999   -0.9300
     26 C26        -3.1551    2.8287   53.6007 C.3     1  ZINC000876376999    0.1400
     27 H27        -6.4070    4.0773   53.9275 H       1  ZINC000876376999    0.0500
     28 H28        -5.7183    2.4365   53.9635 H       1  ZINC000876376999    0.0600
     29 H29        -6.7139    3.0138   55.3214 H       1  ZINC000876376999    0.0500
     30 H30        -4.9751    4.7622   55.7934 H       1  ZINC000876376999    0.0600
     31 H31        -4.3507    3.1038   55.9604 H       1  ZINC000876376999    0.0700
     32 H32        -3.4906    5.2278   52.3521 H       1  ZINC000876376999    0.0500
     33 H33        -5.0886    4.4970   52.6360 H       1  ZINC000876376999    0.0400
     34 H34        -5.3966    6.1386   54.3438 H       1  ZINC000876376999    0.3800
     35 H35        -2.8442    5.8011   55.3171 H       1  ZINC000876376999    0.0700
     36 H36        -2.0457    4.2423   55.6335 H       1  ZINC000876376999    0.0700
     37 H37        -1.8733    5.8182   53.0247 H       1  ZINC000876376999    0.0700
     38 H38        -0.6048    5.7469   54.2721 H       1  ZINC000876376999    0.0800
     39 H39        -0.2214    4.1307   52.3767 H       1  ZINC000876376999    0.0700
     40 H40        -0.3757    3.3269   53.9602 H       1  ZINC000876376999    0.0700
     41 H41        -0.2725    3.4745   50.9176 H       1  ZINC000876376999    0.3900
     42 H42        -1.4121    1.4575   49.1817 H       1  ZINC000876376999    0.0800
     43 H43        -1.7122    3.1184   48.6163 H       1  ZINC000876376999    0.0700
     44 H44         0.8604    3.3714   49.2080 H       1  ZINC000876376999    0.0900
     45 H45         2.1648    1.5934   49.2748 H       1  ZINC000876376999    0.0900
     46 H46         0.6935    0.8656   49.9051 H       1  ZINC000876376999    0.0900
     47 H47        -0.2532   -1.0825   47.0049 H       1  ZINC000876376999    0.0800
     48 H48        -0.9024   -0.0789   48.3081 H       1  ZINC000876376999    0.0900
     49 H49        -0.9356    0.3901   45.4909 H       1  ZINC000876376999    0.0800
     50 H50        -1.5991    1.4249   46.7622 H       1  ZINC000876376999    0.0900
     51 H51        -0.5894    3.6346   47.0583 H       1  ZINC000876376999    0.0900
     52 H52         1.1653    3.7512   47.0563 H       1  ZINC000876376999    0.0900
     53 H53        -2.8134    2.1669   54.3965 H       1  ZINC000876376999    0.0600
     54 H54        -3.9626    2.3504   53.0462 H       1  ZINC000876376999    0.1000
@<TRIPOS>BOND
     1     1     2    1
     2     1    27    1
     3     1    28    1
     4     1    29    1
     5     2     3    1
     6     2    30    1
     7     2    31    1
     8     3    26    1
     9     3     4    1
    10     3     6    1
    11     4     5    1
    12     4    32    1
    13     4    33    1
    14     5    34    1
    15     6     7    1
    16     6    35    1
    17     6    36    1
    18     7     8    1
    19     7    37    1
    20     7    38    1
    21     8     9    1
    22     8    39    1
    23     8    40    1
    24     9    10   am
    25     9    26    1
    26    10    11    2
    27    10    12   am
    28    12    13    1
    29    12    41    1
    30    13    14    1
    31    13    42    1
    32    13    43    1
    33    14    22    1
    34    14    15    1
    35    14    44    1
    36    15    16    1
    37    15    45    1
    38    15    46    1
    39    16    17    1
    40    16    23    1
    41    16    18    1
    42    18    19    1
    43    18    47    1
    44    18    48    1
    45    19    20    1
    46    19    49    1
    47    19    50    1
    48    20    21    1
    49    20    22    1
    50    20    23    1
    51    22    51    1
    52    22    52    1
    53    23    24    2
    54    23    25    2
    55    26    53    1
    56    26    54    1
@<TRIPOS>SUBSTRUCTURE
     1 ZINC000876376999        1 TEMP              0 ****  ****    0 ROOT


##########                                Name:    ZINC000647468483
##########                DOCK_Rotatable_Bonds:                   5
##########                         Heavy_Atoms:                  24
##########                    Molecular_Weight:             341.373
##########                DOCK_Rotatable_Bonds:                   5
##########                       Formal_Charge:           0.0300004
##########                     HBond_Acceptors:                   6
##########                        HBond_Donors:                   2
##########                         Heavy_Atoms:                  24
##########                          Grid_Score:          -27.312025
##########                     Grid_vdw_energy:          -26.885256
##########                      Grid_es_energy:           -0.426769
##########           Internal_energy_repulsive:           19.004004

@<TRIPOS>MOLECULE
ZINC000647468483
 46 48 1 0 0
SMALL
USER_CHARGES


@<TRIPOS>ATOM
      1 O1        -14.0030   -3.8967   58.1625 O.co2   1  ZINC000647468483   -0.6800
      2 C2        -13.8016   -4.8510   57.4308 C.2     1  ZINC000647468483    0.5000
      3 O3        -14.4540   -5.8720   57.5669 O.co2   1  ZINC000647468483   -0.6900
      4 C4        -12.7506   -4.7663   56.3540 C.3     1  ZINC000647468483   -0.1500
      5 H5        -12.3609   -5.7565   56.1181 H       1  ZINC000647468483    0.0800
      6 C6        -11.6062   -3.8125   56.7777 C.3     1  ZINC000647468483   -0.1100
      7 C7        -10.9824   -3.3540   55.4434 C.3     1  ZINC000647468483   -0.1400
      8 C8        -12.0702   -3.5232   54.3684 C.3     1  ZINC000647468483    0.0100
      9 H9        -11.7351   -4.2258   53.6053 H       1  ZINC000647468483    0.1400
     10 N10       -12.3784   -2.2243   53.7554 N.4     1  ZINC000647468483   -0.5000
     11 H11       -12.9909   -1.7021   54.3638 H       1  ZINC000647468483    0.4200
     12 H12       -11.5232   -1.7075   53.6149 H       1  ZINC000647468483    0.4300
     13 C13       -13.0396   -2.4383   52.4611 C.3     1  ZINC000647468483    0.0200
     14 H14       -12.9208   -3.4756   52.1484 H       1  ZINC000647468483    0.1500
     15 C15       -14.5340   -2.0878   52.5684 C.3     1  ZINC000647468483   -0.1400
     16 C16       -14.7909   -0.9421   51.5678 C.3     1  ZINC000647468483   -0.1300
     17 C17       -13.4029   -0.2797   51.3842 C.3     1  ZINC000647468483   -0.1300
     18 C18       -12.4395   -1.4941   51.3989 C.3     1  ZINC000647468483   -0.0600
     19 H19       -12.4222   -1.9790   50.4228 H       1  ZINC000647468483    0.1300
     20 C20       -11.0517   -1.0616   51.7963 C.ar    1  ZINC000647468483   -0.1200
     21 C21       -10.0943   -2.0094   52.1049 C.ar    1  ZINC000647468483   -0.0700
     22 C22        -8.8211   -1.6127   52.4695 C.ar    1  ZINC000647468483   -0.1000
     23 C23        -8.5055   -0.2682   52.5249 C.ar    1  ZINC000647468483   -0.0600
     24 C24        -9.4630    0.6799   52.2154 C.ar    1  ZINC000647468483   -0.1600
     25 C25        -9.1191    2.1459   52.2764 C.3     1  ZINC000647468483    0.5000
     26 F26       -10.0361    2.8723   51.5092 F       1  ZINC000647468483   -0.1700
     27 F27        -9.1725    2.5827   53.6044 F       1  ZINC000647468483   -0.1700
     28 F28        -7.8292    2.3436   51.7719 F       1  ZINC000647468483   -0.1700
     29 C29       -10.7347    0.2831   51.8468 C.ar    1  ZINC000647468483   -0.1100
     30 C30       -13.3186   -4.0833   55.0852 C.3     1  ZINC000647468483   -0.1200
     31 H31       -12.0044   -2.9587   57.3259 H       1  ZINC000647468483    0.0800
     32 H32       -10.8698   -4.3443   57.3803 H       1  ZINC000647468483    0.0800
     33 H33       -10.6836   -2.3079   55.5108 H       1  ZINC000647468483    0.0700
     34 H34       -10.1192   -3.9743   55.2020 H       1  ZINC000647468483    0.1000
     35 H35       -15.1405   -2.9549   52.3069 H       1  ZINC000647468483    0.1000
     36 H36       -14.7687   -1.7590   53.5808 H       1  ZINC000647468483    0.0900
     37 H37       -15.1531   -1.3381   50.6191 H       1  ZINC000647468483    0.0800
     38 H38       -15.5030   -0.2275   51.9807 H       1  ZINC000647468483    0.0900
     39 H39       -13.3483    0.2449   50.4304 H       1  ZINC000647468483    0.0900
     40 H40       -13.1850    0.3963   52.2111 H       1  ZINC000647468483    0.0800
     41 H41       -10.3409   -3.0601   52.0615 H       1  ZINC000647468483    0.1400
     42 H42        -8.0732   -2.3533   52.7113 H       1  ZINC000647468483    0.1500
     43 H43        -7.5112    0.0418   52.8105 H       1  ZINC000647468483    0.1500
     44 H44       -11.4826    1.0237   51.6050 H       1  ZINC000647468483    0.1400
     45 H45       -13.8291   -4.8087   54.4516 H       1  ZINC000647468483    0.0900
     46 H46       -13.9949   -3.2743   55.3616 H       1  ZINC000647468483    0.1000
@<TRIPOS>BOND
     1     1     2   ar
     2     2     3   ar
     3     2     4    1
     4     4     5    1
     5     4    30    1
     6     4     6    1
     7     6     7    1
     8     6    31    1
     9     6    32    1
    10     7     8    1
    11     7    33    1
    12     7    34    1
    13     8     9    1
    14     8    10    1
    15     8    30    1
    16    10    11    1
    17    10    12    1
    18    10    13    1
    19    13    14    1
    20    13    18    1
    21    13    15    1
    22    15    16    1
    23    15    35    1
    24    15    36    1
    25    16    17    1
    26    16    37    1
    27    16    38    1
    28    17    18    1
    29    17    39    1
    30    17    40    1
    31    18    19    1
    32    18    20    1
    33    20    29   ar
    34    20    21   ar
    35    21    22   ar
    36    21    41    1
    37    22    23   ar
    38    22    42    1
    39    23    24   ar
    40    23    43    1
    41    24    25    1
    42    24    29   ar
    43    25    26    1
    44    25    27    1
    45    25    28    1
    46    29    44    1
    47    30    45    1
    48    30    46    1
@<TRIPOS>SUBSTRUCTURE
     1 ZINC000647468483        1 TEMP              0 ****  ****    0 ROOT


##########                                Name:    ZINC001401207732
##########                DOCK_Rotatable_Bonds:                   8
##########                         Heavy_Atoms:                  23
##########                    Molecular_Weight:             337.446
##########                DOCK_Rotatable_Bonds:                   8
##########                       Formal_Charge:          -0.0199995
##########                     HBond_Acceptors:                   8
##########                        HBond_Donors:                   1
##########                         Heavy_Atoms:                  23
##########                          Grid_Score:          -27.304817
##########                     Grid_vdw_energy:          -27.128723
##########                      Grid_es_energy:           -0.176094
##########           Internal_energy_repulsive:          106.444092

@<TRIPOS>MOLECULE
ZINC001401207732
 46 47 1 0 0
SMALL
USER_CHARGES


@<TRIPOS>ATOM
      1 C1        -12.8346   -1.2557   51.1261 C.3     1  ZINC001401207732   -0.0900
      2 C2        -12.0438   -2.1018   52.0905 C.2     1  ZINC001401207732    0.1500
      3 C3        -11.0642   -1.5971   52.8817 C.2     1  ZINC001401207732   -0.3000
      4 C4        -10.6260   -0.1981   52.9298 C.2     1  ZINC001401207732    0.6100
      5 O5        -11.3703    0.6577   53.3708 O.2     1  ZINC001401207732   -0.5200
      6 N6         -9.3993    0.1395   52.4856 N.am    1  ZINC001401207732   -0.5900
      7 C7         -8.5033   -0.8909   51.9546 C.3     1  ZINC001401207732    0.0700
      8 C8         -8.9616    1.5367   52.5336 C.3     1  ZINC001401207732    0.1400
      9 H9         -8.7305    1.8799   51.5252 H       1  ZINC001401207732    0.1100
     10 C10       -10.0782    2.4009   53.1231 C.3     1  ZINC001401207732   -0.1600
     11 C11        -7.7124    1.6501   53.4097 C.3     1  ZINC001401207732    0.0500
     12 N12        -6.5176    1.6899   52.5560 N.3     1  ZINC001401207732   -0.6800
     13 C13        -5.5491    2.6770   53.0517 C.3     1  ZINC001401207732    0.1500
     14 C14        -4.2796    2.5841   52.2449 C.2     1  ZINC001401207732    0.1800
     15 N15        -3.2120    3.3334   52.3800 N.2     1  ZINC001401207732   -0.4800
     16 C16        -2.3408    2.8921   51.4552 C.2     1  ZINC001401207732    0.1800
     17 C17        -0.9561    3.4318   51.2049 C.3     1  ZINC001401207732   -0.0100
     18 C18        -1.0353    4.9368   50.9415 C.3     1  ZINC001401207732   -0.1500
     19 C19        -0.0789    3.1742   52.4317 C.3     1  ZINC001401207732   -0.1500
     20 N20        -2.9124    1.9151   50.8168 N.2     1  ZINC001401207732   -0.3800
     21 O21        -4.0246    1.7185   51.2591 O.3     1  ZINC001401207732    0.0900
     22 S22       -10.4073   -2.9250   53.8359 S.3     1  ZINC001401207732    0.1800
     23 C23       -11.5029   -4.0099   53.0975 C.2     1  ZINC001401207732    0.0100
     24 N24       -12.2434   -3.3875   52.2375 N.2     1  ZINC001401207732   -0.4800
     25 H25       -12.3330   -1.2426   50.1585 H       1  ZINC001401207732    0.0800
     26 H26       -13.8346   -1.6738   51.0115 H       1  ZINC001401207732    0.0800
     27 H27       -12.9080   -0.2385   51.5111 H       1  ZINC001401207732    0.1000
     28 H28        -7.9745   -1.3718   52.7777 H       1  ZINC001401207732    0.0600
     29 H29        -9.0865   -1.6357   51.4130 H       1  ZINC001401207732    0.0800
     30 H30        -7.7822   -0.4320   51.2783 H       1  ZINC001401207732    0.0900
     31 H31        -9.7525    3.4405   53.1587 H       1  ZINC001401207732    0.0700
     32 H32       -10.9681    2.3202   52.4988 H       1  ZINC001401207732    0.0700
     33 H33       -10.3092    2.0577   54.1315 H       1  ZINC001401207732    0.0600
     34 H34        -7.6554    0.7881   54.0744 H       1  ZINC001401207732    0.0800
     35 H35        -7.7660    2.5632   54.0025 H       1  ZINC001401207732    0.0500
     36 H36        -6.7654    1.8770   51.5959 H       1  ZINC001401207732    0.3600
     37 H37        -5.3290    2.4753   54.1000 H       1  ZINC001401207732    0.1100
     38 H38        -5.9689    3.6783   52.9546 H       1  ZINC001401207732    0.0800
     39 H39        -0.5232    2.9334   50.3376 H       1  ZINC001401207732    0.1000
     40 H40        -0.0338    5.3272   50.7605 H       1  ZINC001401207732    0.0700
     41 H41        -1.6602    5.1203   50.0675 H       1  ZINC001401207732    0.0600
     42 H42        -1.4681    5.4353   51.8088 H       1  ZINC001401207732    0.0600
     43 H43        -0.0226    2.1020   52.6195 H       1  ZINC001401207732    0.0600
     44 H44         0.9225    3.5645   52.2507 H       1  ZINC001401207732    0.0700
     45 H45        -0.5118    3.6726   53.2991 H       1  ZINC001401207732    0.0600
     46 H46       -11.5650   -5.0661   53.3143 H       1  ZINC001401207732    0.2000
@<TRIPOS>BOND
     1     1     2    1
     2     1    25    1
     3     1    26    1
     4     1    27    1
     5     2    24    1
     6     2     3    2
     7     3     4    1
     8     3    22    1
     9     4     5    2
    10     4     6   am
    11     6     7    1
    12     6     8    1
    13     7    28    1
    14     7    29    1
    15     7    30    1
    16     8     9    1
    17     8    10    1
    18     8    11    1
    19    10    31    1
    20    10    32    1
    21    10    33    1
    22    11    12    1
    23    11    34    1
    24    11    35    1
    25    12    13    1
    26    12    36    1
    27    13    14    1
    28    13    37    1
    29    13    38    1
    30    14    21    1
    31    14    15    2
    32    15    16    1
    33    16    17    1
    34    16    20    2
    35    17    18    1
    36    17    19    1
    37    17    39    1
    38    18    40    1
    39    18    41    1
    40    18    42    1
    41    19    43    1
    42    19    44    1
    43    19    45    1
    44    20    21    1
    45    22    23    1
    46    23    24    2
    47    23    46    1
@<TRIPOS>SUBSTRUCTURE
     1 ZINC001401207732        1 TEMP              0 ****  ****    0 ROOT


##########                                Name:    ZINC000840464592
##########                DOCK_Rotatable_Bonds:                  10
##########                         Heavy_Atoms:                  26
##########                    Molecular_Weight:             360.497
##########                DOCK_Rotatable_Bonds:                  10
##########                       Formal_Charge:          -0.0399996
##########                     HBond_Acceptors:                   5
##########                        HBond_Donors:                   1
##########                         Heavy_Atoms:                  26
##########                          Grid_Score:          -27.267456
##########                     Grid_vdw_energy:          -27.155371
##########                      Grid_es_energy:           -0.112085
##########           Internal_energy_repulsive:           79.390388

@<TRIPOS>MOLECULE
ZINC000840464592
 58 59 1 0 0
SMALL
USER_CHARGES


@<TRIPOS>ATOM
      1 C1         -7.9754    0.4193   66.1240 C.3     1  ZINC000840464592   -0.1500
      2 C2         -8.3498    0.7501   64.6778 C.3     1  ZINC000840464592   -0.1300
      3 C3         -9.6114   -0.0227   64.2881 C.3     1  ZINC000840464592   -0.1200
      4 C4         -9.9897    0.3133   62.8442 C.3     1  ZINC000840464592   -0.1200
      5 C5        -11.3163   -0.3636   62.4938 C.3     1  ZINC000840464592   -0.1200
      6 C6        -11.6999   -0.0189   61.0533 C.3     1  ZINC000840464592    0.0600
      7 O7        -11.3686   -1.1139   60.1971 O.3     1  ZINC000840464592   -0.3600
      8 C8        -10.7535   -0.7247   58.9673 C.3     1  ZINC000840464592    0.0800
      9 H9        -11.1833    0.2180   58.6285 H       1  ZINC000840464592    0.0800
     10 C10        -9.2487   -0.5511   59.1823 C.3     1  ZINC000840464592   -0.1800
     11 C11       -10.9930   -1.7885   57.9271 C.2     1  ZINC000840464592    0.5200
     12 O12       -10.0745   -2.4845   57.5490 O.2     1  ZINC000840464592   -0.5000
     13 N13       -12.2276   -1.9666   57.4170 N.am    1  ZINC000840464592   -0.6000
     14 C14       -13.3308   -1.1261   57.8755 C.3     1  ZINC000840464592    0.0900
     15 C15       -14.4119   -1.9500   58.5659 C.3     1  ZINC000840464592   -0.1600
     16 C16       -15.0251   -2.9475   57.5807 C.3     1  ZINC000840464592    0.0800
     17 N17       -14.2481   -4.1914   57.6120 N.am    1  ZINC000840464592   -0.7200
     18 C18       -13.0131   -4.2335   57.0874 C.2     1  ZINC000840464592    0.5100
     19 O19       -12.3509   -5.2471   57.1592 O.2     1  ZINC000840464592   -0.5200
     20 C20       -12.4547   -2.9991   56.4004 C.3     1  ZINC000840464592    0.1400
     21 H21       -11.5123   -3.2471   55.9123 H       1  ZINC000840464592    0.1300
     22 C22       -13.4552   -2.4949   55.3584 C.3     1  ZINC000840464592   -0.1000
     23 C23       -12.7456   -2.2704   54.0481 C.ar    1  ZINC000840464592   -0.0900
     24 C24       -12.6876   -1.0019   53.5019 C.ar    1  ZINC000840464592   -0.1100
     25 C25       -12.0367   -0.7959   52.3000 C.ar    1  ZINC000840464592   -0.1200
     26 C26       -11.4434   -1.8585   51.6444 C.ar    1  ZINC000840464592   -0.1200
     27 C27       -11.5006   -3.1268   52.1910 C.ar    1  ZINC000840464592   -0.1200
     28 C28       -12.1478   -3.3320   53.3950 C.ar    1  ZINC000840464592   -0.1100
     29 H29        -7.7887   -0.6507   66.2153 H       1  ZINC000840464592    0.0500
     30 H30        -7.0766    0.9699   66.4016 H       1  ZINC000840464592    0.0500
     31 H31        -8.7941    0.7031   66.7852 H       1  ZINC000840464592    0.0500
     32 H32        -8.5364    1.8202   64.5866 H       1  ZINC000840464592    0.0600
     33 H33        -7.5311    0.4664   64.0165 H       1  ZINC000840464592    0.0600
     34 H34        -9.4233   -1.0929   64.3747 H       1  ZINC000840464592    0.0600
     35 H35       -10.4289    0.2574   64.9524 H       1  ZINC000840464592    0.0600
     36 H36       -10.0937    1.3931   62.7378 H       1  ZINC000840464592    0.0600
     37 H37        -9.2103   -0.0447   62.1716 H       1  ZINC000840464592    0.0600
     38 H38       -11.2102   -1.4440   62.5929 H       1  ZINC000840464592    0.0700
     39 H39       -12.0941   -0.0112   63.1711 H       1  ZINC000840464592    0.0700
     40 H40       -12.7714    0.1736   60.9989 H       1  ZINC000840464592    0.0500
     41 H41       -11.1545    0.8694   60.7347 H       1  ZINC000840464592    0.0500
     42 H42        -8.7695   -0.3241   58.2300 H       1  ZINC000840464592    0.0800
     43 H43        -9.0735    0.2666   59.8814 H       1  ZINC000840464592    0.0700
     44 H44        -8.8311   -1.4723   59.5886 H       1  ZINC000840464592    0.0800
     45 H45       -12.9465   -0.3845   58.5758 H       1  ZINC000840464592    0.1000
     46 H46       -13.7672   -0.6125   57.0188 H       1  ZINC000840464592    0.0800
     47 H47       -13.9729   -2.4926   59.4032 H       1  ZINC000840464592    0.0800
     48 H48       -15.1908   -1.2846   58.9380 H       1  ZINC000840464592    0.1000
     49 H49       -16.0565   -3.1548   57.8662 H       1  ZINC000840464592    0.0900
     50 H50       -15.0013   -2.5281   56.5749 H       1  ZINC000840464592    0.1000
     51 H51       -14.6286   -4.9879   58.0143 H       1  ZINC000840464592    0.4000
     52 H52       -14.2430   -3.2359   55.2227 H       1  ZINC000840464592    0.0900
     53 H53       -13.8935   -1.5570   55.6996 H       1  ZINC000840464592    0.1000
     54 H54       -13.1512   -0.1716   54.0141 H       1  ZINC000840464592    0.1200
     55 H55       -11.9920    0.1951   51.8729 H       1  ZINC000840464592    0.1200
     56 H56       -10.9354   -1.6977   50.7049 H       1  ZINC000840464592    0.1200
     57 H57       -11.0373   -3.9571   51.6785 H       1  ZINC000840464592    0.1200
     58 H58       -12.1925   -4.3230   53.8220 H       1  ZINC000840464592    0.1200
@<TRIPOS>BOND
     1     1     2    1
     2     1    29    1
     3     1    30    1
     4     1    31    1
     5     2     3    1
     6     2    32    1
     7     2    33    1
     8     3     4    1
     9     3    34    1
    10     3    35    1
    11     4     5    1
    12     4    36    1
    13     4    37    1
    14     5     6    1
    15     5    38    1
    16     5    39    1
    17     6     7    1
    18     6    40    1
    19     6    41    1
    20     7     8    1
    21     8     9    1
    22     8    10    1
    23     8    11    1
    24    10    42    1
    25    10    43    1
    26    10    44    1
    27    11    12    2
    28    11    13   am
    29    13    20    1
    30    13    14    1
    31    14    15    1
    32    14    45    1
    33    14    46    1
    34    15    16    1
    35    15    47    1
    36    15    48    1
    37    16    17    1
    38    16    49    1
    39    16    50    1
    40    17    18   am
    41    17    51    1
    42    18    19    2
    43    18    20    1
    44    20    21    1
    45    20    22    1
    46    22    23    1
    47    22    52    1
    48    22    53    1
    49    23    28   ar
    50    23    24   ar
    51    24    25   ar
    52    24    54    1
    53    25    26   ar
    54    25    55    1
    55    26    27   ar
    56    26    56    1
    57    27    28   ar
    58    27    57    1
    59    28    58    1
@<TRIPOS>SUBSTRUCTURE
     1 ZINC000840464592        1 TEMP              0 ****  ****    0 ROOT


##########                                Name:    ZINC000271662144
##########                DOCK_Rotatable_Bonds:                   8
##########                         Heavy_Atoms:                  26
##########                    Molecular_Weight:             390.402
##########                DOCK_Rotatable_Bonds:                   8
##########                       Formal_Charge:          0.00999944
##########                     HBond_Acceptors:                   9
##########                        HBond_Donors:                   3
##########                         Heavy_Atoms:                  26
##########                          Grid_Score:          -27.231421
##########                     Grid_vdw_energy:          -26.055250
##########                      Grid_es_energy:           -1.176170
##########           Internal_energy_repulsive:           10.154174

@<TRIPOS>MOLECULE
ZINC000271662144
 44 45 1 0 0
SMALL
USER_CHARGES


@<TRIPOS>ATOM
      1 C1         -1.1935    0.5680   46.3102 C.3     1  ZINC000271662144   -0.1400
      2 C2         -0.0043    1.3668   46.8474 C.3     1  ZINC000271662144    0.1200
      3 H3          0.5235    1.8355   46.0169 H       1  ZINC000271662144    0.0600
      4 N4          0.9091    0.4647   47.5615 N.3     1  ZINC000271662144   -0.6700
      5 C5          2.2556    1.0447   47.6547 C.3     1  ZINC000271662144    0.1300
      6 H6          2.1829    2.0803   47.9872 H       1  ZINC000271662144    0.1100
      7 C7          3.0874    0.2440   48.6585 C.3     1  ZINC000271662144   -0.2000
      8 C8          2.8118    0.7569   50.0734 C.3     1  ZINC000271662144    0.4600
      9 F9          3.3601    2.0355   50.2210 F       1  ZINC000271662144   -0.1800
     10 F10         1.4306    0.8142   50.2880 F       1  ZINC000271662144   -0.1800
     11 F11         3.3930   -0.1100   51.0051 F       1  ZINC000271662144   -0.1700
     12 C12         2.9179    0.9967   46.3020 C.ar    1  ZINC000271662144   -0.0900
     13 C13         3.3646    2.1634   45.7098 C.ar    1  ZINC000271662144   -0.0600
     14 C14         3.9722    2.1207   44.4694 C.ar    1  ZINC000271662144   -0.1600
     15 C15         4.1338    0.9087   43.8197 C.ar    1  ZINC000271662144    0.1000
     16 F16         4.7279    0.8657   42.6070 F       1  ZINC000271662144   -0.1400
     17 C17         3.6864   -0.2592   44.4138 C.ar    1  ZINC000271662144   -0.1500
     18 C18         3.0835   -0.2145   45.6566 C.ar    1  ZINC000271662144   -0.0700
     19 C19        -0.4998    2.4310   47.7925 C.ar    1  ZINC000271662144   -0.1100
     20 C20        -0.3319    3.7664   47.4788 C.ar    1  ZINC000271662144   -0.0400
     21 C21        -0.7866    4.7426   48.3458 C.ar    1  ZINC000271662144   -0.1400
     22 C22        -1.4093    4.3831   49.5261 C.ar    1  ZINC000271662144   -0.0200
     23 C23        -1.5781    3.0472   49.8396 C.ar    1  ZINC000271662144   -0.6800
     24 S24        -2.3715    2.5888   51.3446 S.o2    1  ZINC000271662144    2.7000
     25 N25        -1.1957    2.4819   52.5057 N.am    1  ZINC000271662144   -1.2500
     26 O26        -3.1994    3.6838   51.7115 O.2     1  ZINC000271662144   -0.9600
     27 O27        -2.8663    1.2707   51.1520 O.2     1  ZINC000271662144   -0.9600
     28 C28        -1.1275    2.0712   48.9708 C.ar    1  ZINC000271662144   -0.0100
     29 H29        -0.8350   -0.2018   45.6267 H       1  ZINC000271662144    0.0600
     30 H30        -1.7213    0.0992   47.1408 H       1  ZINC000271662144    0.0700
     31 H31        -1.8713    1.2373   45.7804 H       1  ZINC000271662144    0.0600
     32 H32         0.5498    0.2361   48.4762 H       1  ZINC000271662144    0.3500
     33 H33         2.8174   -0.8102   48.5953 H       1  ZINC000271662144    0.1100
     34 H34         4.1464    0.3622   48.4291 H       1  ZINC000271662144    0.1200
     35 H35         3.2385    3.1087   46.2169 H       1  ZINC000271662144    0.1300
     36 H36         4.3204    3.0322   44.0067 H       1  ZINC000271662144    0.1400
     37 H37         3.8116   -1.2050   43.9078 H       1  ZINC000271662144    0.1400
     38 H38         2.7348   -1.1254   46.1203 H       1  ZINC000271662144    0.1300
     39 H39         0.1547    4.0474   46.5565 H       1  ZINC000271662144    0.1400
     40 H40        -0.6548    5.7863   48.1010 H       1  ZINC000271662144    0.1400
     41 H41        -1.7638    5.1457   50.2038 H       1  ZINC000271662144    0.1400
     42 H42        -0.6578    3.2590   52.7243 H       1  ZINC000271662144    0.4200
     43 H43        -1.0448    1.6423   52.9674 H       1  ZINC000271662144    0.4200
     44 H44        -1.2593    1.0276   49.2156 H       1  ZINC000271662144    0.1400
@<TRIPOS>BOND
     1     1     2    1
     2     1    29    1
     3     1    30    1
     4     1    31    1
     5     2     3    1
     6     2     4    1
     7     2    19    1
     8     4     5    1
     9     4    32    1
    10     5     6    1
    11     5     7    1
    12     5    12    1
    13     7     8    1
    14     7    33    1
    15     7    34    1
    16     8     9    1
    17     8    10    1
    18     8    11    1
    19    12    18   ar
    20    12    13   ar
    21    13    14   ar
    22    13    35    1
    23    14    15   ar
    24    14    36    1
    25    15    16    1
    26    15    17   ar
    27    17    18   ar
    28    17    37    1
    29    18    38    1
    30    19    28   ar
    31    19    20   ar
    32    20    21   ar
    33    20    39    1
    34    21    22   ar
    35    21    40    1
    36    22    23   ar
    37    22    41    1
    38    23    24    1
    39    23    28   ar
    40    24    25   am
    41    24    26    2
    42    24    27    2
    43    25    42    1
    44    25    43    1
    45    28    44    1
@<TRIPOS>SUBSTRUCTURE
     1 ZINC000271662144        1 TEMP              0 ****  ****    0 ROOT


##########                                Name:    ZINC000364058410
##########                DOCK_Rotatable_Bonds:                   5
##########                         Heavy_Atoms:                  25
##########                    Molecular_Weight:             358.464
##########                DOCK_Rotatable_Bonds:                   5
##########                       Formal_Charge:           0.0100002
##########                     HBond_Acceptors:                   7
##########                        HBond_Donors:                   0
##########                         Heavy_Atoms:                  25
##########                          Grid_Score:          -27.211184
##########                     Grid_vdw_energy:          -26.868135
##########                      Grid_es_energy:           -0.343049
##########           Internal_energy_repulsive:           61.194603

@<TRIPOS>MOLECULE
ZINC000364058410
 47 50 1 0 0
SMALL
USER_CHARGES


@<TRIPOS>ATOM
      1 C1         -7.0955    2.2087   52.6681 C.3     1  ZINC000364058410   -0.0700
      2 C2         -5.6519    2.0940   52.2508 C.2     1  ZINC000364058410   -0.2500
      3 C3         -4.6340    2.8736   52.6831 C.2     1  ZINC000364058410    0.0800
      4 N4         -3.5055    2.4509   52.0756 N.pl3   1  ZINC000364058410   -0.3600
      5 C5         -2.1660    3.0160   52.2559 C.3     1  ZINC000364058410    0.1300
      6 C6         -1.0446    2.1626   51.6362 C.3     1  ZINC000364058410    0.1100
      7 N7         -1.2445    2.9668   50.4150 N.am    1  ZINC000364058410   -0.6500
      8 C8         -1.0149    2.7642   49.1025 C.2     1  ZINC000364058410    0.5600
      9 O9         -1.2856    3.6312   48.2988 O.2     1  ZINC000364058410   -0.5000
     10 C10        -0.4221    1.4606   48.6336 C.3     1  ZINC000364058410    0.1400
     11 H11        -0.6140    0.6844   49.3745 H       1  ZINC000364058410    0.0900
     12 C12        -1.0532    1.0610   47.2960 C.3     1  ZINC000364058410   -0.1200
     13 C13        -0.3503   -0.1873   46.7576 C.3     1  ZINC000364058410   -0.1200
     14 C14         1.1299    0.1210   46.5204 C.3     1  ZINC000364058410   -0.1400
     15 C15         1.7856    0.5099   47.8491 C.3     1  ZINC000364058410    0.1000
     16 N16         1.0270    1.6169   48.4481 N.am    1  ZINC000364058410   -0.6000
     17 C17         1.6479    2.7554   48.8153 C.2     1  ZINC000364058410    0.5900
     18 O18         1.0083    3.6648   49.3103 O.2     1  ZINC000364058410   -0.4900
     19 C19         3.0934    2.8981   48.6186 C.2     1  ZINC000364058410   -0.2600
     20 C20         4.0590    2.2543   49.3399 C.2     1  ZINC000364058410   -0.0600
     21 C21         5.3364    2.5728   48.9441 C.2     1  ZINC000364058410   -0.1400
     22 C22         5.4164    3.4469   47.9340 C.2     1  ZINC000364058410   -0.2400
     23 S23         3.8625    3.9195   47.4115 S.3     1  ZINC000364058410    0.2100
     24 C24        -1.7968    4.0820   51.2083 C.3     1  ZINC000364058410    0.0900
     25 N25        -3.8411    1.3759   51.2425 N.2     1  ZINC000364058410   -0.3000
     26 C26        -5.1268    1.1590   51.3528 C.2     1  ZINC000364058410    0.0500
     27 H27        -7.2705    1.5867   53.5459 H       1  ZINC000364058410    0.0600
     28 H28        -7.3231    3.2474   52.9076 H       1  ZINC000364058410    0.0600
     29 H29        -7.7371    1.8750   51.8525 H       1  ZINC000364058410    0.0600
     30 H30        -4.7108    3.6884   53.3879 H       1  ZINC000364058410    0.1700
     31 H31        -1.9693    3.3234   53.2830 H       1  ZINC000364058410    0.1300
     32 H32        -0.0712    2.3091   52.1043 H       1  ZINC000364058410    0.1100
     33 H33        -1.3070    1.1113   51.5177 H       1  ZINC000364058410    0.0900
     34 H34        -2.1119    0.8476   47.4427 H       1  ZINC000364058410    0.0800
     35 H35        -0.9415    1.8776   46.5828 H       1  ZINC000364058410    0.0800
     36 H36        -0.4411   -0.9963   47.4824 H       1  ZINC000364058410    0.0700
     37 H37        -0.8137   -0.4881   45.8180 H       1  ZINC000364058410    0.0800
     38 H38         1.6249   -0.7614   46.1149 H       1  ZINC000364058410    0.0800
     39 H39         1.2209    0.9465   45.8144 H       1  ZINC000364058410    0.0700
     40 H40         1.7759   -0.3449   48.5253 H       1  ZINC000364058410    0.0800
     41 H41         2.8135    0.8256   47.6706 H       1  ZINC000364058410    0.0900
     42 H42         3.8404    1.5642   50.1414 H       1  ZINC000364058410    0.1500
     43 H43         6.2114    2.1489   49.4143 H       1  ZINC000364058410    0.1500
     44 H44         6.3412    3.8024   47.5041 H       1  ZINC000364058410    0.1700
     45 H45        -2.6599    4.5633   50.7483 H       1  ZINC000364058410    0.0900
     46 H46        -1.0444    4.7925   51.5507 H       1  ZINC000364058410    0.1100
     47 H47        -5.6869    0.3950   50.8344 H       1  ZINC000364058410    0.1800
@<TRIPOS>BOND
     1     1     2    1
     2     1    27    1
     3     1    28    1
     4     1    29    1
     5     2    26    1
     6     2     3    2
     7     3     4    1
     8     3    30    1
     9     4     5    1
    10     4    25    1
    11     5    24    1
    12     5     6    1
    13     5    31    1
    14     6     7    1
    15     6    32    1
    16     6    33    1
    17     7     8   am
    18     7    24    1
    19     8     9    2
    20     8    10    1
    21    10    11    1
    22    10    16    1
    23    10    12    1
    24    12    13    1
    25    12    34    1
    26    12    35    1
    27    13    14    1
    28    13    36    1
    29    13    37    1
    30    14    15    1
    31    14    38    1
    32    14    39    1
    33    15    16    1
    34    15    40    1
    35    15    41    1
    36    16    17   am
    37    17    18    2
    38    17    19    1
    39    19    23    1
    40    19    20    2
    41    20    21    1
    42    20    42    1
    43    21    22    2
    44    21    43    1
    45    22    23    1
    46    22    44    1
    47    24    45    1
    48    24    46    1
    49    25    26    2
    50    26    47    1
@<TRIPOS>SUBSTRUCTURE
     1 ZINC000364058410        1 TEMP              0 ****  ****    0 ROOT


##########                                Name:    ZINC000883773972
##########                DOCK_Rotatable_Bonds:                   4
##########                         Heavy_Atoms:                  23
##########                    Molecular_Weight:             343.447
##########                DOCK_Rotatable_Bonds:                   4
##########                       Formal_Charge:                0.01
##########                     HBond_Acceptors:                   8
##########                        HBond_Donors:                   1
##########                         Heavy_Atoms:                  23
##########                          Grid_Score:          -27.209400
##########                     Grid_vdw_energy:          -26.375473
##########                      Grid_es_energy:           -0.833928
##########           Internal_energy_repulsive:            5.416200

@<TRIPOS>MOLECULE
ZINC000883773972
 48 50 1 0 0
SMALL
USER_CHARGES


@<TRIPOS>ATOM
      1 C1         -2.5030    2.2012   50.8478 C.3     1  ZINC000883773972   -0.1700
      2 C2         -3.3131    2.9350   51.8854 C.2     1  ZINC000883773972    0.5300
      3 O3         -2.8977    3.9722   52.3570 O.2     1  ZINC000883773972   -0.5400
      4 N4         -4.4993    2.4386   52.2891 N.am    1  ZINC000883773972   -0.6200
      5 C5         -5.4088    3.0316   53.2833 C.3     1  ZINC000883773972    0.1100
      6 C6         -6.8331    2.6402   52.8558 C.3     1  ZINC000883773972   -0.1100
      7 H7         -7.3557    3.4690   52.3782 H       1  ZINC000883773972    0.1000
      8 C8         -7.6022    2.1051   54.0754 C.3     1  ZINC000883773972    0.1300
      9 N9         -8.2291    0.8430   53.6498 N.am    1  ZINC000883773972   -0.6400
     10 C10        -9.3943    0.3322   54.0947 C.2     1  ZINC000883773972    0.7300
     11 O11       -10.0383    0.9295   54.9354 O.2     1  ZINC000883773972   -0.5800
     12 N12        -9.8454   -0.8408   53.6079 N.am    1  ZINC000883773972   -0.7400
     13 C13       -11.1110   -1.3969   54.0928 C.3     1  ZINC000883773972    0.1800
     14 H14       -11.1774   -1.2577   55.1719 H       1  ZINC000883773972    0.1100
     15 C15       -12.2733   -0.6757   53.4166 C.3     1  ZINC000883773972   -0.1500
     16 C16       -13.5967   -1.0515   54.0767 C.3     1  ZINC000883773972   -0.1000
     17 C17       -13.9482   -2.5055   53.7533 C.3     1  ZINC000883773972   -0.5600
     18 H18       -13.9729   -2.6430   52.6723 H       1  ZINC000883773972    0.1400
     19 C19       -15.3182   -2.8446   54.3440 C.3     1  ZINC000883773972   -0.1400
     20 S20       -12.6857   -3.5938   54.4757 S.o2    1  ZINC000883773972    2.4200
     21 O21       -12.6676   -3.3977   55.8830 O.2     1  ZINC000883773972   -0.9200
     22 O22       -12.8658   -4.9051   53.9586 O.2     1  ZINC000883773972   -0.9300
     23 C23       -11.1662   -2.8916   53.7692 C.3     1  ZINC000883773972   -0.6300
     24 C24        -7.3348    0.2477   52.6432 C.3     1  ZINC000883773972    0.1100
     25 C25        -6.6562    1.4374   51.8968 C.3     1  ZINC000883773972   -0.1100
     26 H26        -7.0986    1.6057   50.9150 H       1  ZINC000883773972    0.1000
     27 C27        -5.1416    1.2009   51.8173 C.3     1  ZINC000883773972    0.1100
     28 H28        -1.5823    2.7503   50.6506 H       1  ZINC000883773972    0.0900
     29 H29        -2.2598    1.2042   51.2150 H       1  ZINC000883773972    0.0900
     30 H30        -3.0810    2.1185   49.9273 H       1  ZINC000883773972    0.0900
     31 H31        -5.1922    2.6317   54.2739 H       1  ZINC000883773972    0.0800
     32 H32        -5.3039    4.1166   53.2861 H       1  ZINC000883773972    0.0900
     33 H33        -6.9140    1.9215   54.9005 H       1  ZINC000883773972    0.0700
     34 H34        -8.3676    2.8197   54.3780 H       1  ZINC000883773972    0.0900
     35 H35        -9.3322   -1.3168   52.9363 H       1  ZINC000883773972    0.4000
     36 H36       -12.1243    0.4010   53.4982 H       1  ZINC000883773972    0.0900
     37 H37       -12.3052   -0.9545   52.3634 H       1  ZINC000883773972    0.0800
     38 H38       -13.5092   -0.9321   55.1565 H       1  ZINC000883773972    0.0900
     39 H39       -14.3852   -0.3974   53.7045 H       1  ZINC000883773972    0.0900
     40 H40       -16.0723   -2.1852   53.9146 H       1  ZINC000883773972    0.0800
     41 H41       -15.5672   -3.8803   54.1130 H       1  ZINC000883773972    0.0700
     42 H42       -15.2909   -2.7100   55.4254 H       1  ZINC000883773972    0.0800
     43 H43       -11.1673   -3.0331   52.6883 H       1  ZINC000883773972    0.1400
     44 H44       -10.2986   -3.3890   54.2026 H       1  ZINC000883773972    0.1400
     45 H45        -6.5836   -0.3736   53.1308 H       1  ZINC000883773972    0.0800
     46 H46        -7.9117   -0.3477   51.9356 H       1  ZINC000883773972    0.0800
     47 H47        -4.8517    0.9743   50.7913 H       1  ZINC000883773972    0.0900
     48 H48        -4.8557    0.3816   52.4770 H       1  ZINC000883773972    0.0700
@<TRIPOS>BOND
     1     1     2    1
     2     1    28    1
     3     1    29    1
     4     1    30    1
     5     2     3    2
     6     2     4   am
     7     4    27    1
     8     4     5    1
     9     5     6    1
    10     5    31    1
    11     5    32    1
    12     6     7    1
    13     6    25    1
    14     6     8    1
    15     8     9    1
    16     8    33    1
    17     8    34    1
    18     9    10   am
    19     9    24    1
    20    10    11    2
    21    10    12   am
    22    12    13    1
    23    12    35    1
    24    13    14    1
    25    13    23    1
    26    13    15    1
    27    15    16    1
    28    15    36    1
    29    15    37    1
    30    16    17    1
    31    16    38    1
    32    16    39    1
    33    17    18    1
    34    17    19    1
    35    17    20    1
    36    19    40    1
    37    19    41    1
    38    19    42    1
    39    20    21    2
    40    20    22    2
    41    20    23    1
    42    23    43    1
    43    23    44    1
    44    24    25    1
    45    24    45    1
    46    24    46    1
    47    25    26    1
    48    25    27    1
    49    27    47    1
    50    27    48    1
@<TRIPOS>SUBSTRUCTURE
     1 ZINC000883773972        1 TEMP              0 ****  ****    0 ROOT


##########                                Name:    ZINC000416583757
##########                DOCK_Rotatable_Bonds:                   7
##########                         Heavy_Atoms:                  20
##########                    Molecular_Weight:             380.693
##########                DOCK_Rotatable_Bonds:                   7
##########                       Formal_Charge:         1.04308e-07
##########                     HBond_Acceptors:                   7
##########                        HBond_Donors:                   1
##########                         Heavy_Atoms:                  20
##########                          Grid_Score:          -27.197666
##########                     Grid_vdw_energy:          -26.917334
##########                      Grid_es_energy:           -0.280333
##########           Internal_energy_repulsive:           10.048347

@<TRIPOS>MOLECULE
ZINC000416583757
 35 35 1 0 0
SMALL
USER_CHARGES


@<TRIPOS>ATOM
      1 C1        -10.3601   -2.0386   58.3476 C.3     1  ZINC000416583757   -0.1500
      2 C2        -11.0647   -2.9149   57.3101 C.3     1  ZINC000416583757   -0.0200
      3 H3        -10.6951   -2.6681   56.3148 H       1  ZINC000416583757    0.1200
      4 C4        -10.7906   -4.3324   57.5977 C.1     1  ZINC000416583757    0.2100
      5 N5        -10.5789   -5.4262   57.8196 N.1     1  ZINC000416583757   -0.4200
      6 C6        -12.5728   -2.6647   57.3707 C.3     1  ZINC000416583757    0.1300
      7 N7        -13.2589   -3.5966   56.4723 N.am    1  ZINC000416583757   -1.0100
      8 C8        -13.7379   -4.8847   56.9798 C.3     1  ZINC000416583757    0.0800
      9 S9        -13.4927   -3.1941   54.8831 S.o2    1  ZINC000416583757    2.7800
     10 O10       -14.0368   -4.3460   54.2533 O.2     1  ZINC000416583757   -0.9700
     11 O11       -14.1389   -1.9286   54.8805 O.2     1  ZINC000416583757   -0.9700
     12 N12       -11.9973   -2.9570   54.2123 N.am    1  ZINC000416583757   -1.1300
     13 C13       -11.8785   -2.5856   52.8002 C.3     1  ZINC000416583757    0.1600
     14 C14       -10.7979   -1.5469   52.6431 C.ar    1  ZINC000416583757   -0.0800
     15 C15        -9.5266   -1.9260   52.2556 C.ar    1  ZINC000416583757   -0.0800
     16 C16        -8.5343   -0.9725   52.1107 C.ar    1  ZINC000416583757   -0.0300
     17 Cl17       -6.9375   -1.4485   51.6234 Cl      1  ZINC000416583757   -0.0500
     18 C18        -8.8149    0.3598   52.3538 C.ar    1  ZINC000416583757   -0.0700
     19 C19       -10.0876    0.7384   52.7416 C.ar    1  ZINC000416583757   -0.0800
     20 Br20      -10.4722    2.5598   53.0741 Br      1  ZINC000416583757   -0.0300
     21 C21       -11.0801   -0.2147   52.8810 C.ar    1  ZINC000416583757   -0.0700
     22 H22        -9.3037   -2.3035   58.3897 H       1  ZINC000416583757    0.0700
     23 H23       -10.4609   -0.9904   58.0663 H       1  ZINC000416583757    0.0800
     24 H24       -10.8138   -2.1976   59.3258 H       1  ZINC000416583757    0.0700
     25 H25       -12.9258   -2.8170   58.3908 H       1  ZINC000416583757    0.0900
     26 H26       -12.7839   -1.6408   57.0623 H       1  ZINC000416583757    0.1000
     27 H27       -14.7581   -4.7738   57.3474 H       1  ZINC000416583757    0.0700
     28 H28       -13.7192   -5.6214   56.1767 H       1  ZINC000416583757    0.0800
     29 H29       -13.0929   -5.2175   57.7931 H       1  ZINC000416583757    0.0800
     30 H30       -11.2001   -3.0639   54.7544 H       1  ZINC000416583757    0.4200
     31 H31       -11.6229   -3.4675   52.2128 H       1  ZINC000416583757    0.0800
     32 H32       -12.8273   -2.1786   52.4504 H       1  ZINC000416583757    0.1000
     33 H33        -9.3076   -2.9664   52.0662 H       1  ZINC000416583757    0.1500
     34 H34        -8.0407    1.1043   52.2412 H       1  ZINC000416583757    0.1500
     35 H35       -12.0738    0.0810   53.1838 H       1  ZINC000416583757    0.1400
@<TRIPOS>BOND
     1     1     2    1
     2     1    22    1
     3     1    23    1
     4     1    24    1
     5     2     3    1
     6     2     4    1
     7     2     6    1
     8     4     5    3
     9     6     7    1
    10     6    25    1
    11     6    26    1
    12     7     8    1
    13     7     9   am
    14     8    27    1
    15     8    28    1
    16     8    29    1
    17     9    10    2
    18     9    11    2
    19     9    12   am
    20    12    13    1
    21    12    30    1
    22    13    14    1
    23    13    31    1
    24    13    32    1
    25    14    21   ar
    26    14    15   ar
    27    15    16   ar
    28    15    33    1
    29    16    17    1
    30    16    18   ar
    31    18    19   ar
    32    18    34    1
    33    19    20    1
    34    19    21   ar
    35    21    35    1
@<TRIPOS>SUBSTRUCTURE
     1 ZINC000416583757        1 TEMP              0 ****  ****    0 ROOT


##########                                Name:    ZINC001067560454
##########                DOCK_Rotatable_Bonds:                   4
##########                         Heavy_Atoms:                  25
##########                    Molecular_Weight:             342.444
##########                DOCK_Rotatable_Bonds:                   4
##########                       Formal_Charge:          0.00999971
##########                     HBond_Acceptors:                   7
##########                        HBond_Donors:                   1
##########                         Heavy_Atoms:                  25
##########                          Grid_Score:          -27.157534
##########                     Grid_vdw_energy:          -26.129751
##########                      Grid_es_energy:           -1.027782
##########           Internal_energy_repulsive:           13.640393

@<TRIPOS>MOLECULE
ZINC001067560454
 51 54 1 0 0
SMALL
USER_CHARGES


@<TRIPOS>ATOM
      1 C1        -10.7612   -3.5404   53.4429 C.3     1  ZINC001067560454   -0.1500
      2 C2        -11.9482   -2.6045   53.6799 C.3     1  ZINC001067560454    0.1000
      3 H3        -11.5813   -1.6112   53.9388 H       1  ZINC001067560454    0.0600
      4 C4        -12.7932   -2.5203   52.4068 C.3     1  ZINC001067560454   -0.1200
      5 C5        -13.9905   -1.5986   52.6548 C.3     1  ZINC001067560454    0.1400
      6 H6        -13.6355   -0.5938   52.8839 H       1  ZINC001067560454    0.0900
      7 N7        -14.8339   -1.5588   51.4576 N.am    1  ZINC001067560454   -0.7200
      8 C8        -14.6959   -0.5548   50.5691 C.2     1  ZINC001067560454    0.5400
      9 O9        -13.8743    0.3164   50.7613 O.2     1  ZINC001067560454   -0.5300
     10 C10       -15.5623   -0.5148   49.3367 C.3     1  ZINC001067560454   -0.1100
     11 C11       -16.8806    0.2286   49.5612 C.3     1  ZINC001067560454   -0.1300
     12 C12       -14.8112   -0.0722   48.0699 C.3     1  ZINC001067560454   -0.1200
     13 C13       -14.4718   -1.5556   47.8479 C.3     1  ZINC001067560454   -0.1400
     14 C14       -15.7352   -1.8851   48.6605 C.3     1  ZINC001067560454   -0.1200
     15 C15       -14.8022   -2.1362   53.8366 C.3     1  ZINC001067560454   -0.1200
     16 C16       -13.8990   -2.2316   55.0683 C.3     1  ZINC001067560454    0.0600
     17 N17       -12.7695   -3.1249   54.7803 N.3     1  ZINC001067560454   -0.4900
     18 C18       -12.0035   -3.3369   55.9132 C.ar    1  ZINC001067560454    0.4400
     19 C19       -11.3314   -2.2718   56.5363 C.ar    1  ZINC001067560454   -0.0800
     20 N20       -11.2212   -0.9434   56.2950 N.2     1  ZINC001067560454   -0.4700
     21 C21       -10.4587   -0.4007   57.1993 C.2     1  ZINC001067560454    0.2700
     22 N22       -10.0313   -1.3503   58.0791 N.pl3   1  ZINC001067560454   -0.4800
     23 C23        -9.1583   -1.1310   59.2349 C.3     1  ZINC001067560454    0.0800
     24 C24       -10.5692   -2.5490   57.6840 C.ar    1  ZINC001067560454    0.2800
     25 N25       -10.5122   -3.7976   58.1354 N.ar    1  ZINC001067560454   -0.5200
     26 C26       -11.1592   -4.7641   57.5188 C.ar    1  ZINC001067560454    0.3300
     27 N27       -11.8909   -4.5518   56.4404 N.ar    1  ZINC001067560454   -0.5100
     28 H28       -11.1278   -4.5338   53.1841 H       1  ZINC001067560454    0.0700
     29 H29       -10.1512   -3.1540   52.6264 H       1  ZINC001067560454    0.0700
     30 H30       -10.1590   -3.6002   54.3495 H       1  ZINC001067560454    0.0500
     31 H31       -12.1876   -2.1194   51.5939 H       1  ZINC001067560454    0.0800
     32 H32       -13.1491   -3.5153   52.1397 H       1  ZINC001067560454    0.0800
     33 H33       -15.4918   -2.2549   51.3045 H       1  ZINC001067560454    0.4000
     34 H34       -16.6781    1.1977   50.0170 H       1  ZINC001067560454    0.0600
     35 H35       -17.3827    0.3746   48.6047 H       1  ZINC001067560454    0.0700
     36 H36       -17.5201   -0.3571   50.2215 H       1  ZINC001067560454    0.0600
     37 H37       -15.4607    0.3469   47.3013 H       1  ZINC001067560454    0.0900
     38 H38       -13.9395    0.5495   48.2739 H       1  ZINC001067560454    0.0700
     39 H39       -14.5305   -1.8656   46.8046 H       1  ZINC001067560454    0.0700
     40 H40       -13.5470   -1.8691   48.3322 H       1  ZINC001067560454    0.0800
     41 H41       -15.6092   -2.7270   49.3413 H       1  ZINC001067560454    0.0800
     42 H42       -16.6372   -1.9617   48.0534 H       1  ZINC001067560454    0.0900
     43 H43       -15.6320   -1.4610   54.0453 H       1  ZINC001067560454    0.0800
     44 H44       -15.1897   -3.1253   53.5921 H       1  ZINC001067560454    0.0800
     45 H45       -13.5229   -1.2401   55.3205 H       1  ZINC001067560454    0.0700
     46 H46       -14.4702   -2.6276   55.9079 H       1  ZINC001067560454    0.0800
     47 H47       -10.2019    0.6473   57.2456 H       1  ZINC001067560454    0.2300
     48 H48        -9.7654   -0.9010   60.1105 H       1  ZINC001067560454    0.0800
     49 H49        -8.5734   -2.0310   59.4245 H       1  ZINC001067560454    0.0900
     50 H50        -8.4863   -0.2976   59.0297 H       1  ZINC001067560454    0.0900
     51 H51       -11.0917   -5.7679   57.9118 H       1  ZINC001067560454    0.2100
@<TRIPOS>BOND
     1     1     2    1
     2     1    28    1
     3     1    29    1
     4     1    30    1
     5     2     3    1
     6     2    17    1
     7     2     4    1
     8     4     5    1
     9     4    31    1
    10     4    32    1
    11     5     6    1
    12     5     7    1
    13     5    15    1
    14     7     8   am
    15     7    33    1
    16     8     9    2
    17     8    10    1
    18    10    14    1
    19    10    11    1
    20    10    12    1
    21    11    34    1
    22    11    35    1
    23    11    36    1
    24    12    13    1
    25    12    37    1
    26    12    38    1
    27    13    14    1
    28    13    39    1
    29    13    40    1
    30    14    41    1
    31    14    42    1
    32    15    16    1
    33    15    43    1
    34    15    44    1
    35    16    17    1
    36    16    45    1
    37    16    46    1
    38    17    18    1
    39    18    27   ar
    40    18    19   ar
    41    19    24   ar
    42    19    20    1
    43    20    21    2
    44    21    22    1
    45    21    47    1
    46    22    23    1
    47    22    24    1
    48    23    48    1
    49    23    49    1
    50    23    50    1
    51    24    25   ar
    52    25    26   ar
    53    26    27   ar
    54    26    51    1
@<TRIPOS>SUBSTRUCTURE
     1 ZINC001067560454        1 TEMP              0 ****  ****    0 ROOT


##########                                Name:    ZINC001220212140
##########                DOCK_Rotatable_Bonds:                   6
##########                         Heavy_Atoms:                  28
##########                    Molecular_Weight:             379.459
##########                DOCK_Rotatable_Bonds:                   6
##########                       Formal_Charge:         -0.00999925
##########                     HBond_Acceptors:                   6
##########                        HBond_Donors:                   1
##########                         Heavy_Atoms:                  28
##########                          Grid_Score:          -27.112600
##########                     Grid_vdw_energy:          -28.384630
##########                      Grid_es_energy:            1.272029
##########           Internal_energy_repulsive:           13.105492

@<TRIPOS>MOLECULE
ZINC001220212140
 53 56 1 0 0
SMALL
USER_CHARGES


@<TRIPOS>ATOM
      1 C1        -10.8294    1.3871   54.4185 C.3     1  ZINC001220212140   -0.1700
      2 C2        -10.9224    1.1383   52.9118 C.3     1  ZINC001220212140    0.0800
      3 H3        -11.9548    1.2194   52.5716 H       1  ZINC001220212140    0.1200
      4 C4        -10.0116    2.1198   52.1370 C.3     1  ZINC001220212140   -0.1100
      5 C5         -8.7303    1.3195   52.0032 C.ar    1  ZINC001220212140   -0.1500
      6 C6         -7.4450    1.6838   51.6711 C.ar    1  ZINC001220212140   -0.0700
      7 C7         -6.4410    0.7239   51.6306 C.ar    1  ZINC001220212140    0.1400
      8 N8         -5.1305    1.0888   51.2936 N.am    1  ZINC001220212140   -0.6800
      9 C9         -4.4909    2.0377   52.0056 C.2     1  ZINC001220212140    0.7200
     10 O10        -5.0508    2.5771   52.9404 O.2     1  ZINC001220212140   -0.5700
     11 N11        -3.2306    2.3886   51.6816 N.am    1  ZINC001220212140   -0.6300
     12 C12        -2.4198    3.4034   52.3703 C.3     1  ZINC001220212140    0.0900
     13 C13        -1.0445    3.4426   51.6715 C.3     1  ZINC001220212140   -0.1100
     14 C14        -0.9612    2.0514   50.9897 C.3     1  ZINC001220212140   -0.1300
     15 H15        -0.6270    1.2902   51.6947 H       1  ZINC001220212140    0.1200
     16 C16        -0.0629    2.0952   49.7805 C.2     1  ZINC001220212140    0.5300
     17 O17        -0.4974    2.4818   48.7161 O.2     1  ZINC001220212140   -0.5100
     18 N18         1.2231    1.7050   49.8818 N.am    1  ZINC001220212140   -0.5700
     19 C19         1.7478    1.2381   51.1675 C.3     1  ZINC001220212140    0.0700
     20 C20         2.0571    1.7457   48.7591 C.ar    1  ZINC001220212140    0.1400
     21 C21         1.9144    0.8005   47.7516 C.ar    1  ZINC001220212140   -0.1100
     22 C22         2.7392    0.8434   46.6446 C.ar    1  ZINC001220212140   -0.1100
     23 C23         3.7065    1.8260   46.5390 C.ar    1  ZINC001220212140   -0.1200
     24 C24         3.8513    2.7683   47.5406 C.ar    1  ZINC001220212140   -0.1100
     25 C25         3.0254    2.7348   48.6470 C.ar    1  ZINC001220212140   -0.1200
     26 C26        -2.4344    1.8140   50.5819 C.3     1  ZINC001220212140    0.1400
     27 C27        -6.7435   -0.5981   51.9263 C.ar    1  ZINC001220212140   -0.1100
     28 C28        -8.0331   -0.9596   52.2550 C.ar    1  ZINC001220212140   -0.1200
     29 C29        -9.0436   -0.0024   52.2936 C.ar    1  ZINC001220212140    0.0900
     30 O30       -10.3738   -0.1466   52.5729 O.3     1  ZINC001220212140   -0.3000
     31 H31        -9.7923    1.2894   54.7396 H       1  ZINC001220212140    0.0600
     32 H32       -11.1861    2.3922   54.6436 H       1  ZINC001220212140    0.0800
     33 H33       -11.4433    0.6571   54.9459 H       1  ZINC001220212140    0.0700
     34 H34       -10.4311    2.3500   51.1577 H       1  ZINC001220212140    0.0900
     35 H35        -9.8434    3.0310   52.7111 H       1  ZINC001220212140    0.0900
     36 H36        -7.2171    2.7145   51.4425 H       1  ZINC001220212140    0.1400
     37 H37        -4.6837    0.6584   50.5479 H       1  ZINC001220212140    0.4100
     38 H38        -2.9023    4.3779   52.2940 H       1  ZINC001220212140    0.0700
     39 H39        -2.2955    3.1300   53.4182 H       1  ZINC001220212140    0.0700
     40 H40        -1.0122    4.2390   50.9280 H       1  ZINC001220212140    0.1000
     41 H41        -0.2441    3.5627   52.4017 H       1  ZINC001220212140    0.0900
     42 H42         1.6048    0.1605   51.2485 H       1  ZINC001220212140    0.0700
     43 H43         2.8110    1.4692   51.2316 H       1  ZINC001220212140    0.0800
     44 H44         1.2179    1.7369   51.9790 H       1  ZINC001220212140    0.0800
     45 H45         1.1596    0.0325   47.8339 H       1  ZINC001220212140    0.1200
     46 H46         2.6286    0.1086   45.8608 H       1  ZINC001220212140    0.1300
     47 H47         4.3504    1.8571   45.6725 H       1  ZINC001220212140    0.1300
     48 H48         4.6083    3.5339   47.4554 H       1  ZINC001220212140    0.1300
     49 H49         3.1391    3.4710   49.4289 H       1  ZINC001220212140    0.1200
     50 H50        -2.6332    0.7469   50.4823 H       1  ZINC001220212140    0.0900
     51 H51        -2.6577    2.3310   49.6487 H       1  ZINC001220212140    0.0700
     52 H52        -5.9656   -1.3468   51.8982 H       1  ZINC001220212140    0.1300
     53 H53        -8.2604   -1.9904   52.4838 H       1  ZINC001220212140    0.1300
@<TRIPOS>BOND
     1     1     2    1
     2     1    31    1
     3     1    32    1
     4     1    33    1
     5     2     3    1
     6     2    30    1
     7     2     4    1
     8     4     5    1
     9     4    34    1
    10     4    35    1
    11     5    29   ar
    12     5     6   ar
    13     6     7   ar
    14     6    36    1
    15     7     8    1
    16     7    27   ar
    17     8     9   am
    18     8    37    1
    19     9    10    2
    20     9    11   am
    21    11    26    1
    22    11    12    1
    23    12    13    1
    24    12    38    1
    25    12    39    1
    26    13    14    1
    27    13    40    1
    28    13    41    1
    29    14    15    1
    30    14    16    1
    31    14    26    1
    32    16    17    2
    33    16    18   am
    34    18    19    1
    35    18    20    1
    36    19    42    1
    37    19    43    1
    38    19    44    1
    39    20    25   ar
    40    20    21   ar
    41    21    22   ar
    42    21    45    1
    43    22    23   ar
    44    22    46    1
    45    23    24   ar
    46    23    47    1
    47    24    25   ar
    48    24    48    1
    49    25    49    1
    50    26    50    1
    51    26    51    1
    52    27    28   ar
    53    27    52    1
    54    28    29   ar
    55    28    53    1
    56    29    30    1
@<TRIPOS>SUBSTRUCTURE
     1 ZINC001220212140        1 TEMP              0 ****  ****    0 ROOT


##########                                Name:    ZINC000446721380
##########                DOCK_Rotatable_Bonds:                   8
##########                         Heavy_Atoms:                  26
##########                    Molecular_Weight:             419.318
##########                DOCK_Rotatable_Bonds:                   8
##########                       Formal_Charge:           0.0199992
##########                     HBond_Acceptors:                   5
##########                        HBond_Donors:                   2
##########                         Heavy_Atoms:                  26
##########                          Grid_Score:          -27.112427
##########                     Grid_vdw_energy:          -26.523453
##########                      Grid_es_energy:           -0.588975
##########           Internal_energy_repulsive:            7.848561

@<TRIPOS>MOLECULE
ZINC000446721380
 49 51 1 0 0
SMALL
USER_CHARGES


@<TRIPOS>ATOM
      1 C1         -6.3686   -0.2492   51.2417 C.3     1  ZINC000446721380   -0.1200
      2 C2         -7.4016   -0.0071   52.3119 C.ar    1  ZINC000446721380   -0.0300
      3 C3         -7.1790    0.9520   53.2823 C.ar    1  ZINC000446721380   -0.1600
      4 C4         -8.1250    1.1766   54.2657 C.ar    1  ZINC000446721380   -0.0500
      5 C5         -9.2950    0.4428   54.2806 C.ar    1  ZINC000446721380   -0.1500
      6 C6        -10.3257    0.6884   55.3522 C.3     1  ZINC000446721380    0.1900
      7 N7        -10.3513   -0.4490   56.2750 N.am    1  ZINC000446721380   -0.7300
      8 C8        -10.2665   -0.2407   57.6039 C.2     1  ZINC000446721380    0.7100
      9 O9        -10.1703    0.8913   58.0369 O.2     1  ZINC000446721380   -0.5700
     10 N10       -10.2884   -1.2874   58.4528 N.am    1  ZINC000446721380   -0.6900
     11 C11       -10.2003   -1.0710   59.8331 C.ar    1  ZINC000446721380    0.2000
     12 C12        -8.9583   -0.9332   60.4376 C.ar    1  ZINC000446721380   -0.1200
     13 C13        -8.8747   -0.7193   61.8000 C.ar    1  ZINC000446721380   -0.0800
     14 C14       -10.0259   -0.6424   62.5616 C.ar    1  ZINC000446721380   -0.1300
     15 C15       -11.2651   -0.7797   61.9629 C.ar    1  ZINC000446721380   -0.0700
     16 C16       -11.3561   -0.9881   60.6001 C.ar    1  ZINC000446721380   -0.1300
     17 Br17      -13.0506   -1.1750   59.7820 Br      1  ZINC000446721380   -0.0500
     18 C18        -9.5209   -0.5204   53.3076 C.ar    1  ZINC000446721380    0.1500
     19 O19       -10.6715   -1.2434   53.3199 O.3     1  ZINC000446721380   -0.3100
     20 C20       -11.4862   -1.1861   52.1473 C.3     1  ZINC000446721380    0.0700
     21 C21       -12.9184   -0.8165   52.5389 C.3     1  ZINC000446721380   -0.1200
     22 H22       -13.1772   -1.2620   53.4994 H       1  ZINC000446721380    0.1000
     23 C23       -13.9140   -1.2720   51.4444 C.3     1  ZINC000446721380   -0.1500
     24 C24       -14.8980   -0.0760   51.3826 C.3     1  ZINC000446721380    0.0500
     25 O25       -14.0452    1.0723   51.5795 O.3     1  ZINC000446721380   -0.3800
     26 C26       -13.0849    0.7145   52.5920 C.3     1  ZINC000446721380    0.0500
     27 C27        -8.5729   -0.7399   52.3191 C.ar    1  ZINC000446721380   -0.2100
     28 H28        -6.5674    0.4023   50.3908 H       1  ZINC000446721380    0.0800
     29 H29        -5.3765   -0.0352   51.6393 H       1  ZINC000446721380    0.0700
     30 H30        -6.4148   -1.2900   50.9210 H       1  ZINC000446721380    0.0700
     31 H31        -6.2646    1.5266   53.2726 H       1  ZINC000446721380    0.1300
     32 H32        -7.9485    1.9262   55.0229 H       1  ZINC000446721380    0.1300
     33 H33       -10.0707    1.5954   55.9005 H       1  ZINC000446721380    0.0800
     34 H34       -11.3070    0.8055   54.8925 H       1  ZINC000446721380    0.0800
     35 H35       -10.4293   -1.3521   55.9297 H       1  ZINC000446721380    0.4000
     36 H36       -10.3652   -2.1905   58.1074 H       1  ZINC000446721380    0.4100
     37 H37        -8.0584   -0.9935   59.8437 H       1  ZINC000446721380    0.1500
     38 H38        -7.9085   -0.6125   62.2707 H       1  ZINC000446721380    0.1300
     39 H39        -9.9575   -0.4752   63.6263 H       1  ZINC000446721380    0.1300
     40 H40       -12.1626   -0.7199   62.5607 H       1  ZINC000446721380    0.1400
     41 H41       -11.0900   -0.4330   51.4661 H       1  ZINC000446721380    0.0700
     42 H42       -11.4835   -2.1587   51.6551 H       1  ZINC000446721380    0.0700
     43 H43       -13.4067   -1.4080   50.4892 H       1  ZINC000446721380    0.0800
     44 H44       -14.4295   -2.1848   51.7429 H       1  ZINC000446721380    0.0900
     45 H45       -15.3852   -0.0297   50.4087 H       1  ZINC000446721380    0.1000
     46 H46       -15.6378   -0.1460   52.1801 H       1  ZINC000446721380    0.0600
     47 H47       -13.4509    1.0167   53.5732 H       1  ZINC000446721380    0.0600
     48 H48       -12.1304    1.1985   52.3850 H       1  ZINC000446721380    0.0900
     49 H49        -8.7464   -1.4890   51.5607 H       1  ZINC000446721380    0.1300
@<TRIPOS>BOND
     1     1     2    1
     2     1    28    1
     3     1    29    1
     4     1    30    1
     5     2    27   ar
     6     2     3   ar
     7     3     4   ar
     8     3    31    1
     9     4     5   ar
    10     4    32    1
    11     5     6    1
    12     5    18   ar
    13     6     7    1
    14     6    33    1
    15     6    34    1
    16     7     8   am
    17     7    35    1
    18     8     9    2
    19     8    10   am
    20    10    11    1
    21    10    36    1
    22    11    16   ar
    23    11    12   ar
    24    12    13   ar
    25    12    37    1
    26    13    14   ar
    27    13    38    1
    28    14    15   ar
    29    14    39    1
    30    15    16   ar
    31    15    40    1
    32    16    17    1
    33    18    19    1
    34    18    27   ar
    35    19    20    1
    36    20    21    1
    37    20    41    1
    38    20    42    1
    39    21    22    1
    40    21    26    1
    41    21    23    1
    42    23    24    1
    43    23    43    1
    44    23    44    1
    45    24    25    1
    46    24    45    1
    47    24    46    1
    48    25    26    1
    49    26    47    1
    50    26    48    1
    51    27    49    1
@<TRIPOS>SUBSTRUCTURE
     1 ZINC000446721380        1 TEMP              0 ****  ****    0 ROOT


##########                                Name:    ZINC000461336108
##########                DOCK_Rotatable_Bonds:                   5
##########                         Heavy_Atoms:                  26
##########                    Molecular_Weight:             373.522
##########                DOCK_Rotatable_Bonds:                   5
##########                       Formal_Charge:        -3.42727e-07
##########                     HBond_Acceptors:                   7
##########                        HBond_Donors:                   0
##########                         Heavy_Atoms:                  26
##########                          Grid_Score:          -27.108221
##########                     Grid_vdw_energy:          -26.614294
##########                      Grid_es_energy:           -0.493928
##########           Internal_energy_repulsive:           11.496461

@<TRIPOS>MOLECULE
ZINC000461336108
 53 56 1 0 0
SMALL
USER_CHARGES


@<TRIPOS>ATOM
      1 C1        -13.2590   -1.0607   59.0290 C.3     1  ZINC000461336108   -0.1300
      2 C2        -12.6384   -2.4592   59.0273 C.3     1  ZINC000461336108    0.0700
      3 H3        -12.9802   -3.0077   59.9051 H       1  ZINC000461336108    0.0800
      4 C4        -13.0623   -3.1914   57.7855 C.2     1  ZINC000461336108    0.5300
      5 O5        -14.2175   -3.1062   57.4265 O.2     1  ZINC000461336108   -0.5300
      6 N6        -12.2189   -3.9327   57.0594 N.am    1  ZINC000461336108   -0.6100
      7 C7        -12.7394   -4.6372   55.8853 C.3     1  ZINC000461336108    0.0700
      8 C8        -10.8022   -4.0708   57.3845 C.3     1  ZINC000461336108    0.1200
      9 C9        -10.5548   -3.6583   58.8367 C.3     1  ZINC000461336108    0.0400
     10 N10       -11.1745   -2.3432   59.0641 N.3     1  ZINC000461336108   -0.4300
     11 C11       -10.7526   -1.7965   60.2656 C.2     1  ZINC000461336108    0.3300
     12 N12       -11.2963   -1.9897   61.4441 N.2     1  ZINC000461336108   -0.2500
     13 N13       -10.6490   -1.3300   62.3371 N.2     1  ZINC000461336108   -0.2800
     14 C14        -9.6620   -0.6820   61.7861 C.2     1  ZINC000461336108    0.2000
     15 C15        -8.6698    0.2045   62.4936 C.3     1  ZINC000461336108   -0.0300
     16 C16        -9.0230    0.2804   63.9803 C.3     1  ZINC000461336108   -0.0900
     17 C17        -7.9295    1.0536   64.7585 C.3     1  ZINC000461336108   -0.1200
     18 C18        -8.6903    1.5523   66.0122 C.3     1  ZINC000461336108   -0.1200
     19 C19       -10.0892    1.9276   65.4814 C.3     1  ZINC000461336108   -0.1300
     20 C20       -10.3008    1.1189   64.1896 C.3     1  ZINC000461336108   -0.1200
     21 N21        -9.6898   -0.9602   60.4475 N.pl3   1  ZINC000461336108   -0.4900
     22 C22        -8.7738   -0.4578   59.4205 C.3     1  ZINC000461336108    0.1700
     23 C23        -9.3368    0.8043   58.8193 C.2     1  ZINC000461336108   -0.2400
     24 C24        -8.9372    1.3539   57.6715 C.2     1  ZINC000461336108   -0.0900
     25 C25        -9.6020    2.5156   57.3185 C.2     1  ZINC000461336108   -0.1400
     26 C26       -10.5415    2.9092   58.1796 C.2     1  ZINC000461336108   -0.2000
     27 S27       -10.6264    1.7734   59.5199 S.3     1  ZINC000461336108    0.1200
     28 H28       -12.9182   -0.5109   58.1517 H       1  ZINC000461336108    0.0800
     29 H29       -14.3454   -1.1452   59.0054 H       1  ZINC000461336108    0.0800
     30 H30       -12.9554   -0.5297   59.9312 H       1  ZINC000461336108    0.0700
     31 H31       -13.8049   -4.4322   55.7812 H       1  ZINC000461336108    0.0900
     32 H32       -12.2148   -4.2942   54.9935 H       1  ZINC000461336108    0.0700
     33 H33       -12.5859   -5.7095   56.0072 H       1  ZINC000461336108    0.0600
     34 H34       -10.4991   -5.1088   57.2467 H       1  ZINC000461336108    0.0900
     35 H35       -10.2155   -3.4338   56.7226 H       1  ZINC000461336108    0.0900
     36 H36       -10.9996   -4.3942   59.5067 H       1  ZINC000461336108    0.0500
     37 H37        -9.4823   -3.5942   59.0209 H       1  ZINC000461336108    0.1100
     38 H38        -7.6675   -0.2082   62.3789 H       1  ZINC000461336108    0.0800
     39 H39        -8.7027    1.2044   62.0608 H       1  ZINC000461336108    0.1000
     40 H40        -9.1518   -0.7205   64.3924 H       1  ZINC000461336108    0.0900
     41 H41        -7.1133    0.3888   65.0409 H       1  ZINC000461336108    0.0600
     42 H42        -7.5592    1.8942   64.1717 H       1  ZINC000461336108    0.0600
     43 H43        -8.7644    0.7577   66.7546 H       1  ZINC000461336108    0.0700
     44 H44        -8.1957    2.4264   66.4358 H       1  ZINC000461336108    0.0700
     45 H45       -10.8502    1.6640   66.2158 H       1  ZINC000461336108    0.0700
     46 H46       -10.1325    2.9950   65.2650 H       1  ZINC000461336108    0.0600
     47 H47       -10.4467    1.7939   63.3462 H       1  ZINC000461336108    0.0700
     48 H48       -11.1646    0.4628   64.2970 H       1  ZINC000461336108    0.0700
     49 H49        -7.8045   -0.2445   59.8712 H       1  ZINC000461336108    0.1200
     50 H50        -8.6545   -1.2099   58.6407 H       1  ZINC000461336108    0.1000
     51 H51        -8.1540    0.9252   57.0638 H       1  ZINC000461336108    0.1400
     52 H52        -9.3768    3.0619   56.4145 H       1  ZINC000461336108    0.1500
     53 H53       -11.1582    3.7889   58.0690 H       1  ZINC000461336108    0.1700
@<TRIPOS>BOND
     1     1     2    1
     2     1    28    1
     3     1    29    1
     4     1    30    1
     5     2     3    1
     6     2    10    1
     7     2     4    1
     8     4     5    2
     9     4     6   am
    10     6     7    1
    11     6     8    1
    12     7    31    1
    13     7    32    1
    14     7    33    1
    15     8     9    1
    16     8    34    1
    17     8    35    1
    18     9    10    1
    19     9    36    1
    20     9    37    1
    21    10    11    1
    22    11    21    1
    23    11    12    2
    24    12    13    1
    25    13    14    2
    26    14    15    1
    27    14    21    1
    28    15    16    1
    29    15    38    1
    30    15    39    1
    31    16    20    1
    32    16    17    1
    33    16    40    1
    34    17    18    1
    35    17    41    1
    36    17    42    1
    37    18    19    1
    38    18    43    1
    39    18    44    1
    40    19    20    1
    41    19    45    1
    42    19    46    1
    43    20    47    1
    44    20    48    1
    45    21    22    1
    46    22    23    1
    47    22    49    1
    48    22    50    1
    49    23    27    1
    50    23    24    2
    51    24    25    1
    52    24    51    1
    53    25    26    2
    54    25    52    1
    55    26    27    1
    56    26    53    1
@<TRIPOS>SUBSTRUCTURE
     1 ZINC000461336108        1 TEMP              0 ****  ****    0 ROOT


##########                                Name:    ZINC000371438955
##########                DOCK_Rotatable_Bonds:                   4
##########                         Heavy_Atoms:                  25
##########                    Molecular_Weight:             387.499
##########                DOCK_Rotatable_Bonds:                   4
##########                       Formal_Charge:          -0.0299995
##########                     HBond_Acceptors:                   9
##########                        HBond_Donors:                   1
##########                         Heavy_Atoms:                  25
##########                          Grid_Score:          -27.104015
##########                     Grid_vdw_energy:          -24.432653
##########                      Grid_es_energy:           -2.671362
##########           Internal_energy_repulsive:           34.116425

@<TRIPOS>MOLECULE
ZINC000371438955
 47 49 1 0 0
SMALL
USER_CHARGES


@<TRIPOS>ATOM
      1 C1         -2.5402    2.4814   51.4325 C.3     1  ZINC000371438955   -0.6800
      2 S2         -1.7313    4.1029   51.3483 S.o2    1  ZINC000371438955    2.6000
      3 O3         -0.3196    3.9531   51.2856 O.2     1  ZINC000371438955   -0.9500
      4 O4         -2.4184    4.9565   50.4437 O.2     1  ZINC000371438955   -0.9500
      5 N5         -2.0045    4.7787   52.8352 N.am    1  ZINC000371438955   -0.9900
      6 C6         -1.5123    4.1075   54.0038 C.3     1  ZINC000371438955    0.1300
      7 C7         -2.5702    3.0808   54.4420 C.3     1  ZINC000371438955   -0.1700
      8 C8         -3.6851    3.7166   55.1613 C.3     1  ZINC000371438955    0.1400
      9 N9         -4.3287    4.7445   54.3092 N.am    1  ZINC000371438955   -0.6200
     10 C10        -5.4990    4.4751   53.6972 C.2     1  ZINC000371438955    0.7100
     11 O11        -6.0275    5.3179   52.9981 O.2     1  ZINC000371438955   -0.5800
     12 N12        -6.0833    3.2716   53.8602 N.am    1  ZINC000371438955   -0.7400
     13 C13        -7.3554    2.9788   53.1950 C.3     1  ZINC000371438955    0.2000
     14 H14        -7.4229    3.5844   52.2912 H       1  ZINC000371438955    0.1100
     15 C15        -8.4912    3.3663   54.1258 C.3     1  ZINC000371438955   -0.1300
     16 C16        -9.8281    3.1003   53.4195 C.3     1  ZINC000371438955   -0.1100
     17 S17       -10.0631    1.3002   53.3668 S.3     1  ZINC000371438955   -0.1000
     18 C18        -8.4886    0.7215   52.8192 C.ar    1  ZINC000371438955   -0.1100
     19 C19        -8.3960   -0.6070   52.3943 C.ar    1  ZINC000371438955    0.1100
     20 F20        -9.4959   -1.3915   52.4050 F       1  ZINC000371438955   -0.1300
     21 C21        -7.1918   -1.1239   51.9637 C.ar    1  ZINC000371438955   -0.1300
     22 C22        -6.0679   -0.3175   51.9574 C.ar    1  ZINC000371438955   -0.1000
     23 C23        -6.1575    0.9930   52.3731 C.ar    1  ZINC000371438955   -0.1000
     24 C24        -7.3709    1.5301   52.8046 C.ar    1  ZINC000371438955   -0.0800
     25 C25        -3.7068    6.0273   54.1355 C.3     1  ZINC000371438955    0.1000
     26 C26        -2.7474    6.0661   52.9159 C.3     1  ZINC000371438955    0.0900
     27 H27        -2.0938    1.8939   52.2348 H       1  ZINC000371438955    0.1300
     28 H28        -3.6039    2.6157   51.6291 H       1  ZINC000371438955    0.1300
     29 H29        -2.4090    1.9602   50.4842 H       1  ZINC000371438955    0.1300
     30 H30        -0.5780    3.5972   53.7696 H       1  ZINC000371438955    0.0800
     31 H31        -1.3478    4.8308   54.8024 H       1  ZINC000371438955    0.0800
     32 H32        -2.9602    2.5741   53.5592 H       1  ZINC000371438955    0.0800
     33 H33        -2.1010    2.3441   55.0942 H       1  ZINC000371438955    0.0900
     34 H34        -4.4206    2.9582   55.4295 H       1  ZINC000371438955    0.0900
     35 H35        -3.3074    4.1861   56.0697 H       1  ZINC000371438955    0.0700
     36 H36        -5.6617    2.5993   54.4179 H       1  ZINC000371438955    0.4000
     37 H37        -8.4353    2.7710   55.0371 H       1  ZINC000371438955    0.0900
     38 H38        -8.4142    4.4247   54.3744 H       1  ZINC000371438955    0.1000
     39 H39       -10.6412    3.5641   53.9779 H       1  ZINC000371438955    0.1200
     40 H40        -9.7979    3.5001   52.4058 H       1  ZINC000371438955    0.1000
     41 H41        -7.1269   -2.1503   51.6344 H       1  ZINC000371438955    0.1400
     42 H42        -5.1199   -0.7154   51.6270 H       1  ZINC000371438955    0.1300
     43 H43        -5.2739    1.6140   52.3661 H       1  ZINC000371438955    0.1400
     44 H44        -4.4832    6.7798   53.9978 H       1  ZINC000371438955    0.0800
     45 H45        -3.1397    6.2688   55.0344 H       1  ZINC000371438955    0.0900
     46 H46        -2.0448    6.8912   53.0323 H       1  ZINC000371438955    0.0800
     47 H47        -3.3259    6.2070   52.0028 H       1  ZINC000371438955    0.1000
@<TRIPOS>BOND
     1     1     2    1
     2     1    27    1
     3     1    28    1
     4     1    29    1
     5     2     3    2
     6     2     4    2
     7     2     5   am
     8     5    26    1
     9     5     6    1
    10     6     7    1
    11     6    30    1
    12     6    31    1
    13     7     8    1
    14     7    32    1
    15     7    33    1
    16     8     9    1
    17     8    34    1
    18     8    35    1
    19     9    10   am
    20     9    25    1
    21    10    11    2
    22    10    12   am
    23    12    13    1
    24    12    36    1
    25    13    14    1
    26    13    24    1
    27    13    15    1
    28    15    16    1
    29    15    37    1
    30    15    38    1
    31    16    17    1
    32    16    39    1
    33    16    40    1
    34    17    18    1
    35    18    24   ar
    36    18    19   ar
    37    19    20    1
    38    19    21   ar
    39    21    22   ar
    40    21    41    1
    41    22    23   ar
    42    22    42    1
    43    23    24   ar
    44    23    43    1
    45    25    26    1
    46    25    44    1
    47    25    45    1
    48    26    46    1
    49    26    47    1
@<TRIPOS>SUBSTRUCTURE
     1 ZINC000371438955        1 TEMP              0 ****  ****    0 ROOT


##########                                Name:    ZINC000438893617
##########                DOCK_Rotatable_Bonds:                   5
##########                         Heavy_Atoms:                  29
##########                    Molecular_Weight:             412.596
##########                DOCK_Rotatable_Bonds:                   5
##########                       Formal_Charge:           0.0600001
##########                     HBond_Acceptors:                   5
##########                        HBond_Donors:                   0
##########                         Heavy_Atoms:                  29
##########                          Grid_Score:          -27.082251
##########                     Grid_vdw_energy:          -26.539301
##########                      Grid_es_energy:           -0.542949
##########           Internal_energy_repulsive:          168.414368

@<TRIPOS>MOLECULE
ZINC000438893617
 61 66 1 0 0
SMALL
USER_CHARGES


@<TRIPOS>ATOM
      1 C1         -8.1240    2.8019   54.4840 C.3     1  ZINC000438893617   -0.1000
      2 C2         -7.6220    4.2204   54.4010 C.2     1  ZINC000438893617   -0.0900
      3 C3         -6.3397    4.5159   54.1826 C.2     1  ZINC000438893617   -0.1600
      4 C4         -5.2360    3.5077   53.9918 C.3     1  ZINC000438893617   -0.0400
      5 H5         -5.5261    2.4643   54.1146 H       1  ZINC000438893617    0.1400
      6 C6         -3.8289    3.9072   54.4402 C.3     1  ZINC000438893617   -0.1400
      7 C7         -4.1625    3.8244   52.9487 C.3     1  ZINC000438893617   -0.1800
      8 H8         -4.2542    4.7621   52.4006 H       1  ZINC000438893617    0.1300
      9 C9         -3.5863    2.6701   52.1698 C.2     1  ZINC000438893617    0.5500
     10 O10        -4.2068    1.6323   52.0754 O.2     1  ZINC000438893617   -0.5300
     11 N11        -2.3814    2.7910   51.5781 N.am    1  ZINC000438893617   -0.6100
     12 C12        -1.8106    1.6766   50.8087 C.3     1  ZINC000438893617    0.0900
     13 C13        -1.4772    2.1755   49.3972 C.3     1  ZINC000438893617    0.1000
     14 N14        -0.7110    3.4246   49.5094 N.am    1  ZINC000438893617   -0.6100
     15 C15         0.4935    3.5460   48.9169 C.2     1  ZINC000438893617    0.5300
     16 O16         1.1166    4.5817   49.0165 O.2     1  ZINC000438893617   -0.5300
     17 C17         1.0659    2.3947   48.1308 C.3     1  ZINC000438893617   -0.0700
     18 C18         0.0924    2.0033   47.0173 C.3     1  ZINC000438893617   -0.1100
     19 C19         0.6735    0.8345   46.2193 C.3     1  ZINC000438893617   -0.0800
     20 C20         0.8911   -0.3603   47.1498 C.3     1  ZINC000438893617   -0.1100
     21 C21         1.8647    0.0311   48.2632 C.3     1  ZINC000438893617   -0.0800
     22 C22         3.2020    0.4485   47.6481 C.3     1  ZINC000438893617   -0.1100
     23 C23         2.9844    1.6433   46.7175 C.3     1  ZINC000438893617   -0.0900
     24 C24         2.0108    1.2519   45.6040 C.3     1  ZINC000438893617   -0.1100
     25 C25         2.4031    2.8122   47.5156 C.3     1  ZINC000438893617   -0.0900
     26 C26         1.2835    1.1998   49.0614 C.3     1  ZINC000438893617   -0.1200
     27 C27        -1.2818    4.5391   50.2788 C.3     1  ZINC000438893617    0.0700
     28 C28        -1.6177    4.0420   51.6856 C.3     1  ZINC000438893617    0.1000
     29 S29        -6.1342    6.2624   54.1510 S.3     1  ZINC000438893617    0.1000
     30 C30        -7.8519    6.5000   54.4447 C.2     1  ZINC000438893617   -0.2100
     31 C31        -8.4575    5.3153   54.5398 C.2     1  ZINC000438893617   -0.1300
     32 H32        -8.4137    2.4603   53.4903 H       1  ZINC000438893617    0.0700
     33 H33        -7.3345    2.1592   54.8733 H       1  ZINC000438893617    0.0700
     34 H34        -8.9872    2.7603   55.1484 H       1  ZINC000438893617    0.0700
     35 H35        -3.7013    4.8993   54.8733 H       1  ZINC000438893617    0.1100
     36 H36        -3.1930    3.1265   54.8578 H       1  ZINC000438893617    0.1100
     37 H37        -0.9018    1.3233   51.2959 H       1  ZINC000438893617    0.0800
     38 H38        -2.5354    0.8648   50.7480 H       1  ZINC000438893617    0.1000
     39 H39        -0.8815    1.4264   48.8757 H       1  ZINC000438893617    0.1100
     40 H40        -2.3999    2.3606   48.8472 H       1  ZINC000438893617    0.0700
     41 H41        -0.8603    1.7059   47.4556 H       1  ZINC000438893617    0.0800
     42 H42        -0.0627    2.8545   46.3544 H       1  ZINC000438893617    0.0700
     43 H43        -0.0201    0.5556   45.4260 H       1  ZINC000438893617    0.0800
     44 H44        -0.0615   -0.6578   47.5882 H       1  ZINC000438893617    0.0600
     45 H45         1.3051   -1.1930   46.5812 H       1  ZINC000438893617    0.0700
     46 H46         2.0197   -0.8201   48.9262 H       1  ZINC000438893617    0.0800
     47 H47         3.8956    0.7273   48.4413 H       1  ZINC000438893617    0.0600
     48 H48         3.6160   -0.3842   47.0795 H       1  ZINC000438893617    0.0700
     49 H49         3.9371    1.9408   46.2792 H       1  ZINC000438893617    0.0700
     50 H50         2.4248    0.4192   45.0354 H       1  ZINC000438893617    0.0700
     51 H51         1.8558    2.1031   44.9410 H       1  ZINC000438893617    0.0600
     52 H52         2.2481    3.6634   46.8526 H       1  ZINC000438893617    0.0700
     53 H53         3.0968    3.0910   48.3089 H       1  ZINC000438893617    0.0700
     54 H54         1.9772    1.4788   49.8546 H       1  ZINC000438893617    0.0700
     55 H55         0.3309    0.9025   49.4997 H       1  ZINC000438893617    0.0800
     56 H56        -0.5569    5.3508   50.3395 H       1  ZINC000438893617    0.1300
     57 H57        -2.1905    4.8924   49.7916 H       1  ZINC000438893617    0.0800
     58 H58        -2.2132    4.7920   52.2060 H       1  ZINC000438893617    0.1100
     59 H59        -0.6963    3.8557   52.2374 H       1  ZINC000438893617    0.0700
     60 H60        -8.3421    7.4585   54.5303 H       1  ZINC000438893617    0.1700
     61 H61        -9.5179    5.2177   54.7195 H       1  ZINC000438893617    0.1400
@<TRIPOS>BOND
     1     1     2    1
     2     1    32    1
     3     1    33    1
     4     1    34    1
     5     2    31    1
     6     2     3    2
     7     3     4    1
     8     3    29    1
     9     4     5    1
    10     4     7    1
    11     4     6    1
    12     6     7    1
    13     6    35    1
    14     6    36    1
    15     7     8    1
    16     7     9    1
    17     9    10    2
    18     9    11   am
    19    11    28    1
    20    11    12    1
    21    12    13    1
    22    12    37    1
    23    12    38    1
    24    13    14    1
    25    13    39    1
    26    13    40    1
    27    14    15   am
    28    14    27    1
    29    15    16    2
    30    15    17    1
    31    17    25    1
    32    17    26    1
    33    17    18    1
    34    18    19    1
    35    18    41    1
    36    18    42    1
    37    19    24    1
    38    19    20    1
    39    19    43    1
    40    20    21    1
    41    20    44    1
    42    20    45    1
    43    21    22    1
    44    21    26    1
    45    21    46    1
    46    22    23    1
    47    22    47    1
    48    22    48    1
    49    23    24    1
    50    23    25    1
    51    23    49    1
    52    24    50    1
    53    24    51    1
    54    25    52    1
    55    25    53    1
    56    26    54    1
    57    26    55    1
    58    27    28    1
    59    27    56    1
    60    27    57    1
    61    28    58    1
    62    28    59    1
    63    29    30    1
    64    30    31    2
    65    30    60    1
    66    31    61    1
@<TRIPOS>SUBSTRUCTURE
     1 ZINC000438893617        1 TEMP              0 ****  ****    0 ROOT


##########                                Name:    ZINC000847397179
##########                DOCK_Rotatable_Bonds:                   9
##########                         Heavy_Atoms:                  25
##########                    Molecular_Weight:             350.461
##########                DOCK_Rotatable_Bonds:                   9
##########                       Formal_Charge:          0.00999979
##########                     HBond_Acceptors:                   7
##########                        HBond_Donors:                   2
##########                         Heavy_Atoms:                  25
##########                          Grid_Score:          -27.045341
##########                     Grid_vdw_energy:          -25.073339
##########                      Grid_es_energy:           -1.972003
##########           Internal_energy_repulsive:           83.342224

@<TRIPOS>MOLECULE
ZINC000847397179
 55 56 1 0 0
SMALL
USER_CHARGES


@<TRIPOS>ATOM
      1 C1         -0.8316   -0.0667   46.9615 C.3     1  ZINC000847397179   -0.1500
      2 C2         -0.6609    1.4536   46.9803 C.3     1  ZINC000847397179   -0.1000
      3 H3         -1.4446    1.9146   46.3792 H       1  ZINC000847397179    0.0900
      4 C4          0.7074    1.8203   46.4022 C.3     1  ZINC000847397179   -0.0200
      5 C5          0.6834    3.2485   45.9219 C.2     1  ZINC000847397179    0.0100
      6 C6         -0.1420    3.7549   44.9861 C.2     1  ZINC000847397179   -0.0500
      7 N7          0.1722    5.0809   44.8566 N.pl3   1  ZINC000847397179   -0.5700
      8 C8          1.1793    5.3387   45.7183 C.2     1  ZINC000847397179    0.1800
      9 N9          1.4764    4.2394   46.3556 N.2     1  ZINC000847397179   -0.4900
     10 C10        -0.7569    1.9523   48.3991 C.2     1  ZINC000847397179    0.5200
     11 O11        -0.0076    1.5161   49.2473 O.2     1  ZINC000847397179   -0.5300
     12 N12        -1.6753    2.8831   48.7256 N.am    1  ZINC000847397179   -0.7400
     13 C13        -1.7697    3.3667   50.1053 C.3     1  ZINC000847397179    0.1200
     14 C14        -0.7357    4.4717   50.3303 C.3     1  ZINC000847397179    0.1500
     15 H15         0.2679    4.0511   50.2683 H       1  ZINC000847397179    0.0800
     16 C16        -0.9043    5.5578   49.2632 C.3     1  ZINC000847397179   -0.1300
     17 C17         0.0368    6.7238   49.5745 C.3     1  ZINC000847397179   -0.1200
     18 C18        -0.3242    7.3235   50.9355 C.3     1  ZINC000847397179   -0.1400
     19 C19        -0.1490    6.2575   52.0215 C.3     1  ZINC000847397179    0.1100
     20 N20        -0.9371    5.0721   51.6561 N.am    1  ZINC000847397179   -0.5900
     21 C21        -1.8308    4.5491   52.5187 C.2     1  ZINC000847397179    0.6500
     22 O22        -2.4764    3.5687   52.2047 O.2     1  ZINC000847397179   -0.5500
     23 O23        -2.0085    5.1129   53.7284 O.3     1  ZINC000847397179   -0.3600
     24 C24        -1.5380    4.3643   54.8801 C.3     1  ZINC000847397179    0.1400
     25 C25        -0.1696    3.7552   54.5683 C.3     1  ZINC000847397179   -0.1800
     26 C26        -1.4167    5.3019   56.0830 C.3     1  ZINC000847397179   -0.1400
     27 C27        -2.5320    3.2468   55.2028 C.3     1  ZINC000847397179   -0.1800
     28 H28        -0.0479   -0.5278   47.5625 H       1  ZINC000847397179    0.0500
     29 H29        -1.8064   -0.3280   47.3733 H       1  ZINC000847397179    0.0500
     30 H30        -0.7621   -0.4275   45.9352 H       1  ZINC000847397179    0.1000
     31 H31         1.4694    1.7092   47.1737 H       1  ZINC000847397179    0.0800
     32 H32         0.9376    1.1597   45.5664 H       1  ZINC000847397179    0.0800
     33 H33        -0.9050    3.2180   44.4419 H       1  ZINC000847397179    0.1800
     34 H34        -0.2498    5.7166   44.2575 H       1  ZINC000847397179    0.4200
     35 H35         1.6570    6.2970   45.8597 H       1  ZINC000847397179    0.2100
     36 H36        -2.2737    3.2328   48.0470 H       1  ZINC000847397179    0.3900
     37 H37        -2.7694    3.7626   50.2839 H       1  ZINC000847397179    0.0800
     38 H38        -1.5769    2.5431   50.7928 H       1  ZINC000847397179    0.1000
     39 H39        -0.6617    5.1460   48.2835 H       1  ZINC000847397179    0.0800
     40 H40        -1.9352    5.9121   49.2643 H       1  ZINC000847397179    0.0700
     41 H41         1.0654    6.3639   49.5977 H       1  ZINC000847397179    0.0700
     42 H42        -0.0634    7.4872   48.8031 H       1  ZINC000847397179    0.0700
     43 H43         0.3313    8.1686   51.1460 H       1  ZINC000847397179    0.0800
     44 H44        -1.3605    7.6611   50.9209 H       1  ZINC000847397179    0.0700
     45 H45         0.9033    5.9843   52.0990 H       1  ZINC000847397179    0.0700
     46 H46        -0.4986    6.6485   52.9771 H       1  ZINC000847397179    0.0900
     47 H47         0.5387    4.5512   54.3383 H       1  ZINC000847397179    0.0600
     48 H48         0.1836    3.1931   55.4328 H       1  ZINC000847397179    0.0700
     49 H49        -0.2560    3.0872   53.7112 H       1  ZINC000847397179    0.0900
     50 H50        -2.3916    5.7358   56.3052 H       1  ZINC000847397179    0.0700
     51 H51        -1.0635    4.7399   56.9475 H       1  ZINC000847397179    0.0800
     52 H52        -0.7085    6.0980   55.8532 H       1  ZINC000847397179    0.0700
     53 H53        -2.6184    2.5787   54.3457 H       1  ZINC000847397179    0.0900
     54 H54        -2.1788    2.6847   56.0673 H       1  ZINC000847397179    0.0700
     55 H55        -3.5069    3.6807   55.4249 H       1  ZINC000847397179    0.0600
@<TRIPOS>BOND
     1     1     2    1
     2     1    28    1
     3     1    29    1
     4     1    30    1
     5     2     3    1
     6     2     4    1
     7     2    10    1
     8     4     5    1
     9     4    31    1
    10     4    32    1
    11     5     9    1
    12     5     6    2
    13     6     7    1
    14     6    33    1
    15     7     8    1
    16     7    34    1
    17     8     9    2
    18     8    35    1
    19    10    11    2
    20    10    12   am
    21    12    13    1
    22    12    36    1
    23    13    14    1
    24    13    37    1
    25    13    38    1
    26    14    15    1
    27    14    20    1
    28    14    16    1
    29    16    17    1
    30    16    39    1
    31    16    40    1
    32    17    18    1
    33    17    41    1
    34    17    42    1
    35    18    19    1
    36    18    43    1
    37    18    44    1
    38    19    20    1
    39    19    45    1
    40    19    46    1
    41    20    21   am
    42    21    22    2
    43    21    23    1
    44    23    24    1
    45    24    25    1
    46    24    26    1
    47    24    27    1
    48    25    47    1
    49    25    48    1
    50    25    49    1
    51    26    50    1
    52    26    51    1
    53    26    52    1
    54    27    53    1
    55    27    54    1
    56    27    55    1
@<TRIPOS>SUBSTRUCTURE
     1 ZINC000847397179        1 TEMP              0 ****  ****    0 ROOT


##########                                Name:    ZINC000643274279
##########                DOCK_Rotatable_Bonds:                   6
##########                         Heavy_Atoms:                  29
##########                    Molecular_Weight:             392.454
##########                DOCK_Rotatable_Bonds:                   6
##########                       Formal_Charge:         -0.00999939
##########                     HBond_Acceptors:                   6
##########                        HBond_Donors:                   2
##########                         Heavy_Atoms:                  29
##########                          Grid_Score:          -27.016254
##########                     Grid_vdw_energy:          -26.426865
##########                      Grid_es_energy:           -0.589391
##########           Internal_energy_repulsive:           11.655148

@<TRIPOS>MOLECULE
ZINC000643274279
 53 56 1 0 0
SMALL
USER_CHARGES


@<TRIPOS>ATOM
      1 O1         -0.8793    2.2497   51.7577 O.2     1  ZINC000643274279   -0.4900
      2 C2         -2.0086    2.5688   51.4474 C.2     1  ZINC000643274279    0.5100
      3 N3         -2.3281    2.7394   50.1493 N.am    1  ZINC000643274279   -0.6400
      4 C4         -1.3576    2.5545   49.1607 C.ar    1  ZINC000643274279    0.1300
      5 C5         -0.6813    3.6515   48.6386 C.ar    1  ZINC000643274279   -0.1000
      6 C6          0.2731    3.4794   47.6509 C.ar    1  ZINC000643274279   -0.1000
      7 C7          0.5536    2.2154   47.1810 C.ar    1  ZINC000643274279   -0.0600
      8 C8          1.5486    2.0293   46.0489 C.3     1  ZINC000643274279   -0.0900
      9 C9          2.7835    1.3093   46.5786 C.3     1  ZINC000643274279   -0.1200
     10 C10         2.6174   -0.2016   46.5158 C.3     1  ZINC000643274279   -0.1100
     11 C11         1.6402   -0.7572   47.5207 C.3     1  ZINC000643274279   -0.1600
     12 C12         0.2437   -0.2434   47.2289 C.2     1  ZINC000643274279    0.4100
     13 O13        -0.5599   -0.9171   46.6200 O.2     1  ZINC000643274279   -0.4400
     14 C14        -0.1006    1.1047   47.7134 C.ar    1  ZINC000643274279   -0.1300
     15 C15        -1.0669    1.2762   48.7065 C.ar    1  ZINC000643274279   -0.1000
     16 C16        -3.0456    2.7664   52.5039 C.2     1  ZINC000643274279    0.5200
     17 O17        -4.1244    2.2192   52.4052 O.2     1  ZINC000643274279   -0.5000
     18 N18        -2.7835    3.5523   53.5669 N.am    1  ZINC000643274279   -0.5800
     19 C19        -3.7113    3.8330   54.6777 C.3     1  ZINC000643274279    0.0900
     20 C20        -2.7988    4.2172   55.8691 C.3     1  ZINC000643274279   -0.1400
     21 C21        -1.6741    5.0134   55.1560 C.3     1  ZINC000643274279   -0.1200
     22 C22        -1.5224    4.2666   53.8141 C.3     1  ZINC000643274279    0.1800
     23 H23        -0.6955    3.5589   53.8751 H       1  ZINC000643274279    0.0900
     24 C24        -1.2708    5.2539   52.7037 C.ar    1  ZINC000643274279   -0.1000
     25 C25         0.0244    5.6136   52.3803 C.ar    1  ZINC000643274279   -0.0900
     26 C26         0.2577    6.5184   51.3628 C.ar    1  ZINC000643274279   -0.1400
     27 C27        -0.8091    7.0660   50.6650 C.ar    1  ZINC000643274279    0.1100
     28 O28        -0.5822    7.9559   49.6634 O.3     1  ZINC000643274279   -0.5000
     29 C29        -2.1077    6.7030   50.9911 C.ar    1  ZINC000643274279   -0.1400
     30 C30        -2.3355    5.7941   52.0062 C.ar    1  ZINC000643274279   -0.0900
     31 H31        -3.2315    2.9906   49.9011 H       1  ZINC000643274279    0.4200
     32 H32        -0.9022    4.6431   49.0053 H       1  ZINC000643274279    0.1400
     33 H33         0.7964    4.3345   47.2493 H       1  ZINC000643274279    0.1400
     34 H34         1.0924    1.4349   45.2573 H       1  ZINC000643274279    0.0800
     35 H35         1.8367    3.0034   45.6536 H       1  ZINC000643274279    0.0800
     36 H36         3.6481    1.5979   45.9807 H       1  ZINC000643274279    0.0800
     37 H37         2.9526    1.6064   47.6137 H       1  ZINC000643274279    0.0700
     38 H38         2.2778   -0.4718   45.5159 H       1  ZINC000643274279    0.0700
     39 H39         3.5896   -0.6646   46.6850 H       1  ZINC000643274279    0.0800
     40 H40         1.6438   -1.8458   47.4648 H       1  ZINC000643274279    0.0900
     41 H41         1.9371   -0.4477   48.5229 H       1  ZINC000643274279    0.0900
     42 H42        -1.5861    0.4218   49.1148 H       1  ZINC000643274279    0.1300
     43 H43        -4.3700    4.6626   54.4213 H       1  ZINC000643274279    0.0800
     44 H44        -4.2950    2.9443   54.9181 H       1  ZINC000643274279    0.1000
     45 H45        -3.3314    4.8467   56.5819 H       1  ZINC000643274279    0.0900
     46 H46        -2.3991    3.3285   56.3575 H       1  ZINC000643274279    0.0800
     47 H47        -1.9772    6.0477   54.9938 H       1  ZINC000643274279    0.0800
     48 H48        -0.7470    4.9671   55.7274 H       1  ZINC000643274279    0.0900
     49 H49         0.8545    5.1871   52.9238 H       1  ZINC000643274279    0.1200
     50 H50         1.2696    6.7997   51.1111 H       1  ZINC000643274279    0.1300
     51 H51        -1.3867    8.2822   49.2374 H       1  ZINC000643274279    0.3900
     52 H52        -2.9399    7.1282   50.4496 H       1  ZINC000643274279    0.1300
     53 H53        -3.3462    5.5110   52.2602 H       1  ZINC000643274279    0.1300
@<TRIPOS>BOND
     1     1     2    2
     2     2     3   am
     3     2    16    1
     4     3     4    1
     5     3    31    1
     6     4    15   ar
     7     4     5   ar
     8     5     6   ar
     9     5    32    1
    10     6     7   ar
    11     6    33    1
    12     7    14   ar
    13     7     8    1
    14     8     9    1
    15     8    34    1
    16     8    35    1
    17     9    10    1
    18     9    36    1
    19     9    37    1
    20    10    11    1
    21    10    38    1
    22    10    39    1
    23    11    12    1
    24    11    40    1
    25    11    41    1
    26    12    13    2
    27    12    14    1
    28    14    15   ar
    29    15    42    1
    30    16    17    2
    31    16    18   am
    32    18    22    1
    33    18    19    1
    34    19    20    1
    35    19    43    1
    36    19    44    1
    37    20    21    1
    38    20    45    1
    39    20    46    1
    40    21    22    1
    41    21    47    1
    42    21    48    1
    43    22    23    1
    44    22    24    1
    45    24    30   ar
    46    24    25   ar
    47    25    26   ar
    48    25    49    1
    49    26    27   ar
    50    26    50    1
    51    27    28    1
    52    27    29   ar
    53    28    51    1
    54    29    30   ar
    55    29    52    1
    56    30    53    1
@<TRIPOS>SUBSTRUCTURE
     1 ZINC000643274279        1 TEMP              0 ****  ****    0 ROOT


##########                                Name:    ZINC001011267435
##########                DOCK_Rotatable_Bonds:                   7
##########                         Heavy_Atoms:                  24
##########                    Molecular_Weight:             331.458
##########                DOCK_Rotatable_Bonds:                   7
##########                       Formal_Charge:        -4.47035e-08
##########                     HBond_Acceptors:                   5
##########                        HBond_Donors:                   0
##########                         Heavy_Atoms:                  24
##########                          Grid_Score:          -27.000624
##########                     Grid_vdw_energy:          -26.981203
##########                      Grid_es_energy:           -0.019421
##########           Internal_energy_repulsive:           38.673458

@<TRIPOS>MOLECULE
ZINC001011267435
 53 54 1 0 0
SMALL
USER_CHARGES


@<TRIPOS>ATOM
      1 C1        -15.1741   -2.7736   60.9305 C.3     1  ZINC001011267435   -0.1500
      2 C2        -14.1092   -2.2350   59.9730 C.3     1  ZINC001011267435   -0.1200
      3 C3        -14.7130   -2.0757   58.5763 C.3     1  ZINC001011267435   -0.0700
      4 C4        -14.1934   -3.1676   57.6769 C.ar    1  ZINC001011267435    0.1300
      5 C5        -13.3881   -2.8404   56.6035 C.ar    1  ZINC001011267435   -0.1200
      6 C6        -12.9124   -3.8628   55.7763 C.ar    1  ZINC001011267435   -0.0800
      7 C7        -12.0455   -3.5602   54.6138 C.2     1  ZINC001011267435    0.5600
      8 O8        -10.8487   -3.7601   54.6800 O.2     1  ZINC001011267435   -0.5200
      9 N9        -12.5842   -3.0631   53.4827 N.am    1  ZINC001011267435   -0.6100
     10 C10       -14.0290   -2.8106   53.3906 C.3     1  ZINC001011267435    0.0700
     11 C11       -14.2460   -1.3460   52.9906 C.3     1  ZINC001011267435    0.1000
     12 N12       -13.3990   -1.0463   51.8275 N.am    1  ZINC001011267435   -0.6200
     13 C13       -13.9375   -0.5485   50.6968 C.2     1  ZINC001011267435    0.5300
     14 O14       -13.2283   -0.3053   49.7435 O.2     1  ZINC001011267435   -0.5300
     15 C15       -15.4207   -0.2942   50.6169 C.3     1  ZINC001011267435   -0.1100
     16 H16       -15.7900    0.0120   51.5956 H       1  ZINC001011267435    0.0900
     17 C17       -16.1350   -1.5748   50.1800 C.3     1  ZINC001011267435   -0.1500
     18 C18       -15.6939    0.8148   49.5989 C.3     1  ZINC001011267435   -0.0800
     19 C19       -17.1988    1.0807   49.5259 C.3     1  ZINC001011267435   -0.1500
     20 C20       -14.9707    2.0923   50.0300 C.3     1  ZINC001011267435   -0.1500
     21 C21       -11.9541   -1.2988   51.9198 C.3     1  ZINC001011267435    0.0900
     22 C22       -11.7363   -2.7582   52.3217 C.3     1  ZINC001011267435    0.1000
     23 C23       -13.2773   -5.1783   56.0773 C.ar    1  ZINC001011267435   -0.1600
     24 C24       -14.0871   -5.4153   57.1714 C.ar    1  ZINC001011267435    0.1100
     25 N25       -14.5094   -4.4225   57.9284 N.ar    1  ZINC001011267435   -0.4600
     26 H26       -16.0104   -2.0759   60.9736 H       1  ZINC001011267435    0.0600
     27 H27       -15.5265   -3.7417   60.5745 H       1  ZINC001011267435    0.0500
     28 H28       -14.7439   -2.8871   61.9256 H       1  ZINC001011267435    0.0600
     29 H29       -13.7568   -1.2669   60.3291 H       1  ZINC001011267435    0.0700
     30 H30       -13.2729   -2.9328   59.9300 H       1  ZINC001011267435    0.0600
     31 H31       -15.7990   -2.1434   58.6401 H       1  ZINC001011267435    0.0800
     32 H32       -14.4328   -1.1047   58.1680 H       1  ZINC001011267435    0.0900
     33 H33       -13.1300   -1.8106   56.4057 H       1  ZINC001011267435    0.1400
     34 H34       -14.4673   -3.4645   52.6366 H       1  ZINC001011267435    0.0800
     35 H35       -14.4956   -2.9988   54.3574 H       1  ZINC001011267435    0.1100
     36 H36       -15.2929   -1.1889   52.7309 H       1  ZINC001011267435    0.1100
     37 H37       -13.9709   -0.6954   53.8208 H       1  ZINC001011267435    0.0700
     38 H38       -17.1965   -1.3697   50.0420 H       1  ZINC001011267435    0.0800
     39 H39       -15.7078   -1.9268   49.2410 H       1  ZINC001011267435    0.0600
     40 H40       -16.0093   -2.3402   50.9458 H       1  ZINC001011267435    0.0600
     41 H41       -15.3317    0.5053   48.6185 H       1  ZINC001011267435    0.0800
     42 H42       -17.3935    1.8708   48.8006 H       1  ZINC001011267435    0.0600
     43 H43       -17.7141    0.1706   49.2188 H       1  ZINC001011267435    0.0600
     44 H44       -17.5611    1.3902   50.5063 H       1  ZINC001011267435    0.0600
     45 H45       -13.8985    1.9029   50.0819 H       1  ZINC001011267435    0.0600
     46 H46       -15.1653    2.8823   49.3047 H       1  ZINC001011267435    0.0600
     47 H47       -15.3329    2.4017   51.0104 H       1  ZINC001011267435    0.0500
     48 H48       -11.4874   -1.1107   50.9529 H       1  ZINC001011267435    0.1000
     49 H49       -11.5159   -0.6449   52.6737 H       1  ZINC001011267435    0.0800
     50 H50       -10.6891   -2.9139   52.5810 H       1  ZINC001011267435    0.1100
     51 H51       -12.0114   -3.4108   51.4931 H       1  ZINC001011267435    0.0800
     52 H52       -12.9316   -5.9971   55.4636 H       1  ZINC001011267435    0.1500
     53 H53       -14.3747   -6.4282   57.4119 H       1  ZINC001011267435    0.1700
@<TRIPOS>BOND
     1     1     2    1
     2     1    26    1
     3     1    27    1
     4     1    28    1
     5     2     3    1
     6     2    29    1
     7     2    30    1
     8     3     4    1
     9     3    31    1
    10     3    32    1
    11     4    25   ar
    12     4     5   ar
    13     5     6   ar
    14     5    33    1
    15     6     7    1
    16     6    23   ar
    17     7     8    2
    18     7     9   am
    19     9    22    1
    20     9    10    1
    21    10    11    1
    22    10    34    1
    23    10    35    1
    24    11    12    1
    25    11    36    1
    26    11    37    1
    27    12    13   am
    28    12    21    1
    29    13    14    2
    30    13    15    1
    31    15    16    1
    32    15    17    1
    33    15    18    1
    34    17    38    1
    35    17    39    1
    36    17    40    1
    37    18    19    1
    38    18    20    1
    39    18    41    1
    40    19    42    1
    41    19    43    1
    42    19    44    1
    43    20    45    1
    44    20    46    1
    45    20    47    1
    46    21    22    1
    47    21    48    1
    48    21    49    1
    49    22    50    1
    50    22    51    1
    51    23    24   ar
    52    23    52    1
    53    24    25   ar
    54    24    53    1
@<TRIPOS>SUBSTRUCTURE
     1 ZINC001011267435        1 TEMP              0 ****  ****    0 ROOT


##########                                Name:    ZINC001291841503
##########                DOCK_Rotatable_Bonds:                   7
##########                         Heavy_Atoms:                  28
##########                    Molecular_Weight:             397.544
##########                DOCK_Rotatable_Bonds:                   7
##########                       Formal_Charge:         -0.00999964
##########                     HBond_Acceptors:                   7
##########                        HBond_Donors:                   0
##########                         Heavy_Atoms:                  28
##########                          Grid_Score:          -26.994225
##########                     Grid_vdw_energy:          -26.601107
##########                      Grid_es_energy:           -0.393118
##########           Internal_energy_repulsive:           15.580309

@<TRIPOS>MOLECULE
ZINC001291841503
 55 58 1 0 0
SMALL
USER_CHARGES


@<TRIPOS>ATOM
      1 C1        -13.0477   -1.3390   51.9483 C.3     1  ZINC001291841503   -0.1500
      2 C2        -11.5673   -1.7140   52.0424 C.3     1  ZINC001291841503   -0.1100
      3 C3        -10.9112   -0.9213   53.1746 C.3     1  ZINC001291841503    0.0500
      4 H4        -11.4005    0.0480   53.2704 H       1  ZINC001291841503    0.0900
      5 C5        -11.0495   -1.6836   54.4672 C.2     1  ZINC001291841503    0.2000
      6 N6        -10.6692   -2.9108   54.6843 N.2     1  ZINC001291841503   -0.2700
      7 N7        -10.9373   -3.2475   55.8954 N.2     1  ZINC001291841503   -0.3100
      8 C8        -11.5075   -2.2449   56.5211 C.2     1  ZINC001291841503    0.3600
      9 N9        -11.9376   -2.2334   57.8385 N.3     1  ZINC001291841503   -0.4500
     10 C10       -12.8612   -3.3453   58.1004 C.3     1  ZINC001291841503    0.0200
     11 C11       -10.7980   -2.2662   58.7647 C.3     1  ZINC001291841503    0.0700
     12 H12       -10.1741   -3.1404   58.5786 H       1  ZINC001291841503    0.0800
     13 C13        -9.9640   -0.9601   58.6614 C.3     1  ZINC001291841503   -0.1400
     14 C14        -9.3630   -0.8814   60.0874 C.3     1  ZINC001291841503    0.0500
     15 O15       -10.3960   -1.3707   60.9574 O.3     1  ZINC001291841503   -0.3800
     16 C16       -11.2805   -2.2375   60.2309 C.3     1  ZINC001291841503    0.0600
     17 N17       -11.5916   -1.2138   55.6313 N.pl3   1  ZINC001291841503   -0.4700
     18 C18       -12.1549    0.1173   55.8706 C.3     1  ZINC001291841503    0.1900
     19 C19       -13.6228    0.1103   55.5299 C.2     1  ZINC001291841503   -0.2700
     20 C20       -14.1933    0.7385   54.4975 C.2     1  ZINC001291841503    0.0800
     21 N21       -15.4988    0.5785   54.4141 N.2     1  ZINC001291841503   -0.4800
     22 C22       -16.0611   -0.1496   55.3187 C.2     1  ZINC001291841503    0.0500
     23 C23       -17.5365   -0.4476   55.3918 C.3     1  ZINC001291841503   -0.0800
     24 S24       -14.8892   -0.7335   56.4181 S.3     1  ZINC001291841503    0.1800
     25 C25        -9.4505   -0.7182   52.8649 C.ar    1  ZINC001291841503   -0.0900
     26 C26        -8.7080   -1.7522   52.3260 C.ar    1  ZINC001291841503   -0.0900
     27 C27        -7.3680   -1.5659   52.0419 C.ar    1  ZINC001291841503   -0.1200
     28 C28        -6.7708   -0.3455   52.2961 C.ar    1  ZINC001291841503   -0.1200
     29 C29        -7.5135    0.6888   52.8341 C.ar    1  ZINC001291841503   -0.1200
     30 C30        -8.8545    0.5039   53.1142 C.ar    1  ZINC001291841503   -0.1100
     31 H31       -13.5426   -1.5741   52.8907 H       1  ZINC001291841503    0.0500
     32 H32       -13.1400   -0.2720   51.7458 H       1  ZINC001291841503    0.0500
     33 H33       -13.5151   -1.9037   51.1417 H       1  ZINC001291841503    0.0600
     34 H34       -11.4750   -2.7810   52.2450 H       1  ZINC001291841503    0.0800
     35 H35       -11.0724   -1.4790   51.1000 H       1  ZINC001291841503    0.0800
     36 H36       -12.3295   -4.2913   57.9969 H       1  ZINC001291841503    0.0500
     37 H37       -13.2556   -3.2592   59.1129 H       1  ZINC001291841503    0.0900
     38 H38       -13.6836   -3.3107   57.3859 H       1  ZINC001291841503    0.0700
     39 H39        -9.1805   -1.0526   57.9094 H       1  ZINC001291841503    0.0900
     40 H40       -10.6030   -0.1012   58.4565 H       1  ZINC001291841503    0.0800
     41 H41        -8.4771   -1.5123   60.1599 H       1  ZINC001291841503    0.0700
     42 H42        -9.1151    0.1503   60.3372 H       1  ZINC001291841503    0.0900
     43 H43       -12.2980   -1.8489   60.2749 H       1  ZINC001291841503    0.0800
     44 H44       -11.2478   -3.2404   60.6567 H       1  ZINC001291841503    0.0700
     45 H45       -12.0267    0.3828   56.9199 H       1  ZINC001291841503    0.1100
     46 H46       -11.6403    0.8472   55.2456 H       1  ZINC001291841503    0.1100
     47 H47       -13.6306    1.3288   53.7894 H       1  ZINC001291841503    0.1700
     48 H48       -17.7529   -1.3531   54.8247 H       1  ZINC001291841503    0.0900
     49 H49       -17.8269   -0.5926   56.4324 H       1  ZINC001291841503    0.0800
     50 H50       -18.0973    0.3872   54.9711 H       1  ZINC001291841503    0.0900
     51 H51        -9.1747   -2.7057   52.1274 H       1  ZINC001291841503    0.1300
     52 H52        -6.7878   -2.3740   51.6215 H       1  ZINC001291841503    0.1200
     53 H53        -5.7237   -0.2001   52.0748 H       1  ZINC001291841503    0.1200
     54 H54        -7.0468    1.6422   53.0330 H       1  ZINC001291841503    0.1200
     55 H55        -9.4348    1.3120   53.5345 H       1  ZINC001291841503    0.1200
@<TRIPOS>BOND
     1     1     2    1
     2     1    31    1
     3     1    32    1
     4     1    33    1
     5     2     3    1
     6     2    34    1
     7     2    35    1
     8     3     4    1
     9     3     5    1
    10     3    25    1
    11     5    17    1
    12     5     6    2
    13     6     7    1
    14     7     8    2
    15     8     9    1
    16     8    17    1
    17     9    10    1
    18     9    11    1
    19    10    36    1
    20    10    37    1
    21    10    38    1
    22    11    12    1
    23    11    16    1
    24    11    13    1
    25    13    14    1
    26    13    39    1
    27    13    40    1
    28    14    15    1
    29    14    41    1
    30    14    42    1
    31    15    16    1
    32    16    43    1
    33    16    44    1
    34    17    18    1
    35    18    19    1
    36    18    45    1
    37    18    46    1
    38    19    24    1
    39    19    20    2
    40    20    21    1
    41    20    47    1
    42    21    22    2
    43    22    23    1
    44    22    24    1
    45    23    48    1
    46    23    49    1
    47    23    50    1
    48    25    30   ar
    49    25    26   ar
    50    26    27   ar
    51    26    51    1
    52    27    28   ar
    53    27    52    1
    54    28    29   ar
    55    28    53    1
    56    29    30   ar
    57    29    54    1
    58    30    55    1
@<TRIPOS>SUBSTRUCTURE
     1 ZINC001291841503        1 TEMP              0 ****  ****    0 ROOT


##########                                Name:    ZINC000225856071
##########                DOCK_Rotatable_Bonds:                   6
##########                         Heavy_Atoms:                  29
##########                    Molecular_Weight:             409.549
##########                DOCK_Rotatable_Bonds:                   6
##########                       Formal_Charge:         -0.00999989
##########                     HBond_Acceptors:                   5
##########                        HBond_Donors:                   1
##########                         Heavy_Atoms:                  29
##########                          Grid_Score:          -26.972624
##########                     Grid_vdw_energy:          -26.895403
##########                      Grid_es_energy:           -0.077221
##########           Internal_energy_repulsive:           32.188934

@<TRIPOS>MOLECULE
ZINC000225856071
 56 58 1 0 0
SMALL
USER_CHARGES


@<TRIPOS>ATOM
      1 C1        -14.2398   -5.1905   56.7407 C.3     1  ZINC000225856071    0.0200
      2 O2        -12.8547   -4.9551   57.0012 O.3     1  ZINC000225856071   -0.3100
      3 C3        -12.1936   -4.1423   56.1355 C.ar    1  ZINC000225856071    0.1900
      4 C4        -12.2668   -4.3753   54.7702 C.ar    1  ZINC000225856071   -0.2300
      5 C5        -11.5941   -3.5472   53.8922 C.ar    1  ZINC000225856071    0.0700
      6 C6        -11.6732   -3.7999   52.4086 C.3     1  ZINC000225856071   -0.1800
      7 C7        -10.8490   -2.4869   54.3734 C.ar    1  ZINC000225856071   -0.7100
      8 S8         -9.9928   -1.4324   53.2511 S.o2    1  ZINC000225856071    2.7000
      9 O9         -9.6397   -0.2679   53.9848 O.2     1  ZINC000225856071   -0.9600
     10 O10        -9.0408   -2.2477   52.5815 O.2     1  ZINC000225856071   -0.9500
     11 N11       -11.0842   -0.9490   52.1032 N.am    1  ZINC000225856071   -1.1100
     12 C12       -12.2825   -0.2050   52.4991 C.3     1  ZINC000225856071    0.2400
     13 H13       -12.4979   -0.3959   53.5504 H       1  ZINC000225856071    0.1100
     14 C14       -13.4510   -0.6501   51.6581 C.ar    1  ZINC000225856071   -0.1000
     15 C15       -13.5414   -0.2553   50.3364 C.ar    1  ZINC000225856071   -0.1000
     16 C16       -14.6132   -0.6636   49.5648 C.ar    1  ZINC000225856071   -0.1200
     17 C17       -15.5944   -1.4672   50.1148 C.ar    1  ZINC000225856071   -0.1100
     18 C18       -15.5035   -1.8627   51.4362 C.ar    1  ZINC000225856071   -0.1100
     19 C19       -14.4295   -1.4580   52.2066 C.ar    1  ZINC000225856071   -0.1000
     20 C20       -12.0487    1.2696   52.2940 C.ar    1  ZINC000225856071   -0.0900
     21 C21       -10.9092    1.7048   51.6442 C.ar    1  ZINC000225856071   -0.1000
     22 C22       -10.6948    3.0577   51.4560 C.ar    1  ZINC000225856071   -0.1200
     23 C23       -11.6201    3.9747   51.9174 C.ar    1  ZINC000225856071   -0.0800
     24 C24       -11.3861    5.4494   51.7128 C.3     1  ZINC000225856071   -0.1200
     25 C25       -12.7607    3.5394   52.5664 C.ar    1  ZINC000225856071   -0.1200
     26 C26       -12.9769    2.1868   52.7510 C.ar    1  ZINC000225856071   -0.0600
     27 C27       -14.2201    1.7121   53.4583 C.3     1  ZINC000225856071   -0.1300
     28 C28       -10.7748   -2.2522   55.7342 C.ar    1  ZINC000225856071    0.0200
     29 C29       -11.4489   -3.0745   56.6158 C.ar    1  ZINC000225856071   -0.1400
     30 C30       -11.3680   -2.8179   58.0986 C.3     1  ZINC000225856071   -0.1100
     31 H31       -14.3516   -5.6539   55.7604 H       1  ZINC000225856071    0.0600
     32 H32       -14.6456   -5.8539   57.5045 H       1  ZINC000225856071    0.1000
     33 H33       -14.7790   -4.2433   56.7584 H       1  ZINC000225856071    0.0600
     34 H34       -12.8488   -5.2035   54.3937 H       1  ZINC000225856071    0.1400
     35 H35       -12.5133   -3.2457   51.9900 H       1  ZINC000225856071    0.0900
     36 H36       -10.7486   -3.4712   51.9343 H       1  ZINC000225856071    0.1000
     37 H37       -11.8150   -4.8655   52.2285 H       1  ZINC000225856071    0.0800
     38 H38       -10.9301   -1.1585   51.1688 H       1  ZINC000225856071    0.4200
     39 H39       -12.7748    0.3725   49.9067 H       1  ZINC000225856071    0.1200
     40 H40       -14.6842   -0.3545   48.5324 H       1  ZINC000225856071    0.1200
     41 H41       -16.4322   -1.7856   49.5122 H       1  ZINC000225856071    0.1200
     42 H42       -16.2703   -2.4902   51.8660 H       1  ZINC000225856071    0.1200
     43 H43       -14.3585   -1.7670   53.2390 H       1  ZINC000225856071    0.1200
     44 H44       -10.1861    0.9881   51.2836 H       1  ZINC000225856071    0.1200
     45 H45        -9.8040    3.3977   50.9488 H       1  ZINC000225856071    0.1200
     46 H46       -11.8243    5.7585   50.7638 H       1  ZINC000225856071    0.0700
     47 H47       -11.8503    6.0072   52.5261 H       1  ZINC000225856071    0.0700
     48 H48       -10.3146    5.6489   51.7004 H       1  ZINC000225856071    0.0700
     49 H49       -13.4839    4.2560   52.9265 H       1  ZINC000225856071    0.1200
     50 H50       -15.0149    1.5540   52.7293 H       1  ZINC000225856071    0.0800
     51 H51       -14.0092    0.7757   53.9748 H       1  ZINC000225856071    0.0700
     52 H52       -14.5354    2.4634   54.1824 H       1  ZINC000225856071    0.0700
     53 H53       -10.1923   -1.4230   56.1077 H       1  ZINC000225856071    0.1500
     54 H54       -12.1729   -2.1453   58.3954 H       1  ZINC000225856071    0.0700
     55 H55       -11.4657   -3.7609   58.6364 H       1  ZINC000225856071    0.0700
     56 H56       -10.4070   -2.3617   58.3365 H       1  ZINC000225856071    0.0700
@<TRIPOS>BOND
     1     1     2    1
     2     1    31    1
     3     1    32    1
     4     1    33    1
     5     2     3    1
     6     3    29   ar
     7     3     4   ar
     8     4     5   ar
     9     4    34    1
    10     5     6    1
    11     5     7   ar
    12     6    35    1
    13     6    36    1
    14     6    37    1
    15     7     8    1
    16     7    28   ar
    17     8     9    2
    18     8    10    2
    19     8    11   am
    20    11    12    1
    21    11    38    1
    22    12    13    1
    23    12    14    1
    24    12    20    1
    25    14    19   ar
    26    14    15   ar
    27    15    16   ar
    28    15    39    1
    29    16    17   ar
    30    16    40    1
    31    17    18   ar
    32    17    41    1
    33    18    19   ar
    34    18    42    1
    35    19    43    1
    36    20    26   ar
    37    20    21   ar
    38    21    22   ar
    39    21    44    1
    40    22    23   ar
    41    22    45    1
    42    23    24    1
    43    23    25   ar
    44    24    46    1
    45    24    47    1
    46    24    48    1
    47    25    26   ar
    48    25    49    1
    49    26    27    1
    50    27    50    1
    51    27    51    1
    52    27    52    1
    53    28    29   ar
    54    28    53    1
    55    29    30    1
    56    30    54    1
    57    30    55    1
    58    30    56    1
@<TRIPOS>SUBSTRUCTURE
     1 ZINC000225856071        1 TEMP              0 ****  ****    0 ROOT


##########                                Name:    ZINC000845755710
##########                DOCK_Rotatable_Bonds:                   3
##########                         Heavy_Atoms:                  24
##########                    Molecular_Weight:             349.814
##########                DOCK_Rotatable_Bonds:                   3
##########                       Formal_Charge:         -0.00999974
##########                     HBond_Acceptors:                   6
##########                        HBond_Donors:                   0
##########                         Heavy_Atoms:                  24
##########                          Grid_Score:          -26.950523
##########                     Grid_vdw_energy:          -27.308687
##########                      Grid_es_energy:            0.358164
##########           Internal_energy_repulsive:           14.311459

@<TRIPOS>MOLECULE
ZINC000845755710
 44 47 1 0 0
SMALL
USER_CHARGES


@<TRIPOS>ATOM
      1 C1        -14.1052   -5.4872   56.9898 C.3     1  ZINC000845755710   -0.1700
      2 C2        -13.7756   -3.9992   56.8543 C.3     1  ZINC000845755710    0.2600
      3 C3        -12.9343   -3.7716   55.5969 C.3     1  ZINC000845755710   -0.0900
      4 C4        -13.8309   -3.8629   54.3600 C.3     1  ZINC000845755710   -0.1300
      5 C5        -12.9793   -3.6689   53.1015 C.3     1  ZINC000845755710    0.1100
      6 N6        -12.2417   -2.4038   53.2200 N.am    1  ZINC000845755710   -0.6000
      7 C7        -12.3184   -1.4708   52.2504 C.2     1  ZINC000845755710    0.5900
      8 O8        -13.0032   -1.6722   51.2653 O.2     1  ZINC000845755710   -0.5200
      9 C9        -11.5742   -0.2092   52.3833 C.2     1  ZINC000845755710   -0.2200
     10 C10       -12.0897    1.0275   52.6205 C.2     1  ZINC000845755710    0.0600
     11 O11       -11.1020    1.9284   52.6770 O.3     1  ZINC000845755710   -0.1800
     12 C12        -9.8982    1.3503   52.4839 C.ar    1  ZINC000845755710    0.0500
     13 C13        -8.6012    1.8469   52.4504 C.ar    1  ZINC000845755710   -0.0900
     14 C14        -7.5419    0.9933   52.2261 C.ar    1  ZINC000845755710   -0.0800
     15 C15        -7.7563   -0.3637   52.0319 C.ar    1  ZINC000845755710   -0.0400
     16 Cl16       -6.4087   -1.4214   51.7505 Cl      1  ZINC000845755710   -0.0600
     17 C17        -9.0376   -0.8748   52.0623 C.ar    1  ZINC000845755710   -0.0500
     18 C18       -10.1121   -0.0227   52.2933 C.ar    1  ZINC000845755710   -0.0900
     19 C19       -11.4194   -2.1748   54.4158 C.3     1  ZINC000845755710    0.1000
     20 C20       -12.2885   -2.3855   55.6596 C.3     1  ZINC000845755710   -0.1300
     21 O21       -14.9936   -3.2414   56.7607 O.3     1  ZINC000845755710   -0.3700
     22 C22       -15.2599   -2.7999   58.1136 C.3     1  ZINC000845755710    0.0100
     23 C23       -13.8296   -2.5303   58.6439 C.3     1  ZINC000845755710    0.0200
     24 O24       -13.0463   -3.5604   58.0080 O.3     1  ZINC000845755710   -0.3800
     25 H25       -14.6999   -5.6472   57.8891 H       1  ZINC000845755710    0.0600
     26 H26       -14.6704   -5.8150   56.1173 H       1  ZINC000845755710    0.0800
     27 H27       -13.1800   -6.0593   57.0594 H       1  ZINC000845755710    0.0800
     28 H28       -12.1560   -4.5325   55.5381 H       1  ZINC000845755710    0.0900
     29 H29       -14.3087   -4.8422   54.3286 H       1  ZINC000845755710    0.0800
     30 H30       -14.5944   -3.0864   54.4060 H       1  ZINC000845755710    0.0800
     31 H31       -12.2747   -4.4950   53.0062 H       1  ZINC000845755710    0.0700
     32 H32       -13.6258   -3.6343   52.2246 H       1  ZINC000845755710    0.1000
     33 H33       -13.1394    1.2489   52.7444 H       1  ZINC000845755710    0.2200
     34 H34        -8.4226    2.9015   52.5996 H       1  ZINC000845755710    0.1500
     35 H35        -6.5357    1.3847   52.2011 H       1  ZINC000845755710    0.1500
     36 H36        -9.2048   -1.9311   51.9111 H       1  ZINC000845755710    0.1400
     37 H37       -10.5876   -2.8790   54.4277 H       1  ZINC000845755710    0.0800
     38 H38       -11.0366   -1.1542   54.4062 H       1  ZINC000845755710    0.0900
     39 H39       -13.0665   -1.6228   55.6933 H       1  ZINC000845755710    0.0700
     40 H40       -11.6685   -2.3131   56.5532 H       1  ZINC000845755710    0.0800
     41 H41       -15.8555   -1.8871   58.1160 H       1  ZINC000845755710    0.1100
     42 H42       -15.7488   -3.5846   58.6911 H       1  ZINC000845755710    0.0800
     43 H43       -13.4859   -1.5417   58.3395 H       1  ZINC000845755710    0.0800
     44 H44       -13.7948   -2.6343   59.7284 H       1  ZINC000845755710    0.1000
@<TRIPOS>BOND
     1     1     2    1
     2     1    25    1
     3     1    26    1
     4     1    27    1
     5     2    24    1
     6     2     3    1
     7     2    21    1
     8     3    20    1
     9     3     4    1
    10     3    28    1
    11     4     5    1
    12     4    29    1
    13     4    30    1
    14     5     6    1
    15     5    31    1
    16     5    32    1
    17     6     7   am
    18     6    19    1
    19     7     8    2
    20     7     9    1
    21     9    18    1
    22     9    10    2
    23    10    11    1
    24    10    33    1
    25    11    12    1
    26    12    18   ar
    27    12    13   ar
    28    13    14   ar
    29    13    34    1
    30    14    15   ar
    31    14    35    1
    32    15    16    1
    33    15    17   ar
    34    17    18   ar
    35    17    36    1
    36    19    20    1
    37    19    37    1
    38    19    38    1
    39    20    39    1
    40    20    40    1
    41    21    22    1
    42    22    23    1
    43    22    41    1
    44    22    42    1
    45    23    24    1
    46    23    43    1
    47    23    44    1
@<TRIPOS>SUBSTRUCTURE
     1 ZINC000845755710        1 TEMP              0 ****  ****    0 ROOT


##########                                Name:    ZINC001067316277
##########                DOCK_Rotatable_Bonds:                   5
##########                         Heavy_Atoms:                  24
##########                    Molecular_Weight:             345.469
##########                DOCK_Rotatable_Bonds:                   5
##########                       Formal_Charge:          -0.0200007
##########                     HBond_Acceptors:                   7
##########                        HBond_Donors:                   2
##########                         Heavy_Atoms:                  24
##########                          Grid_Score:          -26.924614
##########                     Grid_vdw_energy:          -27.284306
##########                      Grid_es_energy:            0.359691
##########           Internal_energy_repulsive:           13.776819

@<TRIPOS>MOLECULE
ZINC001067316277
 47 49 1 0 0
SMALL
USER_CHARGES


@<TRIPOS>ATOM
      1 C1         -7.5214    0.3738   52.5717 C.3     1  ZINC001067316277   -0.1400
      2 S2         -5.9957   -0.1640   51.7599 S.3     1  ZINC001067316277   -0.0400
      3 C3         -5.0282    1.2991   51.9268 C.ar    1  ZINC001067316277    0.1800
      4 C4         -5.4939    2.3738   52.6883 C.ar    1  ZINC001067316277   -0.2400
      5 C5         -4.7018    3.5003   52.7912 C.ar    1  ZINC001067316277    0.1900
      6 N6         -3.5319    3.5294   52.1696 N.ar    1  ZINC001067316277   -0.5600
      7 C7         -3.1146    2.4953   51.4537 C.ar    1  ZINC001067316277    0.5100
      8 N8         -1.8864    2.5651   50.8198 N.3     1  ZINC001067316277   -0.4600
      9 C9         -0.8015    2.1777   51.7304 C.3     1  ZINC001067316277    0.0700
     10 C10         0.5476    2.4052   51.0447 C.3     1  ZINC001067316277   -0.1300
     11 C11         0.6100    1.5707   49.7624 C.3     1  ZINC001067316277    0.1600
     12 H12         0.5400    0.5122   50.0129 H       1  ZINC001067316277    0.0900
     13 N13         1.8763    1.8278   49.0720 N.am    1  ZINC001067316277   -0.7200
     14 C14         2.8709    0.9201   49.1283 C.2     1  ZINC001067316277    0.5900
     15 O15         2.7176   -0.1125   49.7538 O.2     1  ZINC001067316277   -0.5300
     16 C16         4.1381    1.1767   48.4357 C.2     1  ZINC001067316277   -0.0600
     17 C17         5.2333    0.3398   48.4036 C.2     1  ZINC001067316277   -0.1000
     18 C18         6.2130    0.9746   47.6338 C.2     1  ZINC001067316277   -0.2100
     19 C19         5.7104    2.1619   47.2184 C.2     1  ZINC001067316277    0.0300
     20 N20         4.4483    2.2942   47.6943 N.pl3   1  ZINC001067316277   -0.5400
     21 C21        -0.5586    1.9595   48.8525 C.3     1  ZINC001067316277   -0.0700
     22 C22        -0.4300    3.4319   48.4569 C.3     1  ZINC001067316277   -0.1400
     23 C23        -0.5379    1.0888   47.5945 C.3     1  ZINC001067316277   -0.1400
     24 C24        -1.8755    1.7449   49.6018 C.3     1  ZINC001067316277    0.0800
     25 N25        -3.8412    1.3946   51.3343 N.ar    1  ZINC001067316277   -0.5400
     26 H26        -7.3064    0.6473   53.6047 H       1  ZINC001067316277    0.0900
     27 H27        -7.9287    1.2367   52.0447 H       1  ZINC001067316277    0.0900
     28 H28        -8.2480   -0.4385   52.5546 H       1  ZINC001067316277    0.1000
     29 H29        -6.4517    2.3250   53.1849 H       1  ZINC001067316277    0.1500
     30 H30        -5.0324    4.3488   53.3718 H       1  ZINC001067316277    0.1700
     31 H31        -0.8547    2.7815   52.6364 H       1  ZINC001067316277    0.1000
     32 H32        -0.9039    1.1240   51.9899 H       1  ZINC001067316277    0.0500
     33 H33         0.6566    3.4612   50.7974 H       1  ZINC001067316277    0.0800
     34 H34         1.3521    2.1029   51.7151 H       1  ZINC001067316277    0.0800
     35 H35         1.9989    2.6515   48.5744 H       1  ZINC001067316277    0.3900
     36 H36         5.3186   -0.6242   48.8828 H       1  ZINC001067316277    0.1500
     37 H37         7.1961    0.5873   47.4105 H       1  ZINC001067316277    0.1500
     38 H38         6.2293    2.8836   46.6049 H       1  ZINC001067316277    0.1700
     39 H39         3.8631    3.0528   47.5426 H       1  ZINC001067316277    0.4100
     40 H40         0.5098    3.5848   47.9263 H       1  ZINC001067316277    0.0500
     41 H41        -1.2620    3.7080   47.8092 H       1  ZINC001067316277    0.0600
     42 H42        -0.4461    4.0517   49.3533 H       1  ZINC001067316277    0.0700
     43 H43        -0.6310    0.0402   47.8768 H       1  ZINC001067316277    0.0600
     44 H44        -1.3699    1.3661   46.9471 H       1  ZINC001067316277    0.0600
     45 H45         0.4018    1.2402   47.0633 H       1  ZINC001067316277    0.0600
     46 H46        -1.9729    0.6932   49.8712 H       1  ZINC001067316277    0.0600
     47 H47        -2.7090    2.0343   48.9616 H       1  ZINC001067316277    0.1000
@<TRIPOS>BOND
     1     1     2    1
     2     1    26    1
     3     1    27    1
     4     1    28    1
     5     2     3    1
     6     3    25   ar
     7     3     4   ar
     8     4     5   ar
     9     4    29    1
    10     5     6   ar
    11     5    30    1
    12     6     7   ar
    13     7     8    1
    14     7    25   ar
    15     8    24    1
    16     8     9    1
    17     9    10    1
    18     9    31    1
    19     9    32    1
    20    10    11    1
    21    10    33    1
    22    10    34    1
    23    11    12    1
    24    11    13    1
    25    11    21    1
    26    13    14   am
    27    13    35    1
    28    14    15    2
    29    14    16    1
    30    16    20    1
    31    16    17    2
    32    17    18    1
    33    17    36    1
    34    18    19    2
    35    18    37    1
    36    19    20    1
    37    19    38    1
    38    20    39    1
    39    21    22    1
    40    21    23    1
    41    21    24    1
    42    22    40    1
    43    22    41    1
    44    22    42    1
    45    23    43    1
    46    23    44    1
    47    23    45    1
    48    24    46    1
    49    24    47    1
@<TRIPOS>SUBSTRUCTURE
     1 ZINC001067316277        1 TEMP              0 ****  ****    0 ROOT


##########                                Name:    ZINC000186105981
##########                DOCK_Rotatable_Bonds:                   6
##########                         Heavy_Atoms:                  26
##########                    Molecular_Weight:             396.873
##########                DOCK_Rotatable_Bonds:                   6
##########                       Formal_Charge:          -0.0400003
##########                     HBond_Acceptors:                   9
##########                        HBond_Donors:                   1
##########                         Heavy_Atoms:                  26
##########                          Grid_Score:          -26.922333
##########                     Grid_vdw_energy:          -27.149345
##########                      Grid_es_energy:            0.227012
##########           Internal_energy_repulsive:           15.432601

@<TRIPOS>MOLECULE
ZINC000186105981
 44 46 1 0 0
SMALL
USER_CHARGES


@<TRIPOS>ATOM
      1 C1        -14.1990   -4.4926   57.2382 C.3     1  ZINC000186105981   -0.1400
      2 C2        -13.1427   -4.0281   56.2335 C.3     1  ZINC000186105981   -0.1100
      3 C3        -13.4478   -4.6273   54.8591 C.3     1  ZINC000186105981   -0.1600
      4 C4        -13.1642   -2.5012   56.1402 C.3     1  ZINC000186105981    0.1600
      5 H5        -14.0466   -2.1835   55.5848 H       1  ZINC000186105981    0.1200
      6 C6        -11.9243   -2.0238   55.4290 C.2     1  ZINC000186105981    0.4900
      7 O7        -10.8344   -2.4326   55.7697 O.2     1  ZINC000186105981   -0.4300
      8 N8        -12.0264   -1.1427   54.4143 N.am    1  ZINC000186105981   -0.6300
      9 C9        -10.8830   -0.7025   53.7585 C.2     1  ZINC000186105981    0.2400
     10 N10       -10.6695   -0.7483   52.4743 N.2     1  ZINC000186105981   -0.2600
     11 N11        -9.5705   -0.3022   52.0460 N.2     1  ZINC000186105981   -0.2000
     12 C12        -8.7278    0.1726   52.9199 C.2     1  ZINC000186105981    0.0300
     13 C13        -7.3949    0.7394   52.6254 C.ar    1  ZINC000186105981   -0.0500
     14 C14        -7.1518    2.1013   52.8228 C.ar    1  ZINC000186105981    0.1300
     15 F15        -8.1351    2.9050   53.2837 F       1  ZINC000186105981   -0.1200
     16 C16        -5.9025    2.6237   52.5454 C.ar    1  ZINC000186105981   -0.1400
     17 C17        -4.8951    1.8018   52.0741 C.ar    1  ZINC000186105981   -0.0600
     18 C18        -5.1293    0.4526   51.8761 C.ar    1  ZINC000186105981   -0.1200
     19 C19        -6.3704   -0.0847   52.1541 C.ar    1  ZINC000186105981    0.0200
     20 Cl20       -6.6611   -1.7780   51.9053 Cl      1  ZINC000186105981   -0.0100
     21 S21        -9.4651    0.0251   54.5164 S.3     1  ZINC000186105981    0.1200
     22 N22       -13.2041   -1.9301   57.4887 N.am    1  ZINC000186105981   -0.6100
     23 C23       -12.0944   -1.9921   58.4473 C.3     1  ZINC000186105981    0.1000
     24 C24       -12.4104   -0.9196   59.5133 C.3     1  ZINC000186105981   -0.1300
     25 C25       -13.9502   -0.8197   59.4134 C.3     1  ZINC000186105981   -0.1600
     26 C26       -14.2594   -1.2769   58.0049 C.2     1  ZINC000186105981    0.5200
     27 O27       -15.3093   -1.0881   57.4280 O.2     1  ZINC000186105981   -0.5000
     28 H28       -14.1836   -5.5805   57.3046 H       1  ZINC000186105981    0.0600
     29 H29       -13.9816   -4.0658   58.2173 H       1  ZINC000186105981    0.0600
     30 H30       -15.1841   -4.1625   56.9085 H       1  ZINC000186105981    0.0600
     31 H31       -12.1576   -4.3582   56.5631 H       1  ZINC000186105981    0.0900
     32 H32       -14.3900   -4.2241   54.4879 H       1  ZINC000186105981    0.0600
     33 H33       -12.6458   -4.3737   54.1659 H       1  ZINC000186105981    0.0600
     34 H34       -13.5251   -5.7113   54.9443 H       1  ZINC000186105981    0.0700
     35 H35       -12.8981   -0.8158   54.1417 H       1  ZINC000186105981    0.4200
     36 H36        -5.7128    3.6760   52.6970 H       1  ZINC000186105981    0.1500
     37 H37        -3.9208    2.2152   51.8591 H       1  ZINC000186105981    0.1500
     38 H38        -4.3377   -0.1830   51.5074 H       1  ZINC000186105981    0.1500
     39 H39       -12.0483   -2.9791   58.9075 H       1  ZINC000186105981    0.0700
     40 H40       -11.1524   -1.7629   57.9492 H       1  ZINC000186105981    0.0800
     41 H41       -12.1047   -1.2531   60.5049 H       1  ZINC000186105981    0.0900
     42 H42       -11.9406    0.0312   59.2612 H       1  ZINC000186105981    0.0800
     43 H43       -14.4232   -1.4757   60.1441 H       1  ZINC000186105981    0.1100
     44 H44       -14.2757    0.2107   59.5571 H       1  ZINC000186105981    0.1000
@<TRIPOS>BOND
     1     1     2    1
     2     1    28    1
     3     1    29    1
     4     1    30    1
     5     2     3    1
     6     2     4    1
     7     2    31    1
     8     3    32    1
     9     3    33    1
    10     3    34    1
    11     4     5    1
    12     4     6    1
    13     4    22    1
    14     6     7    2
    15     6     8   am
    16     8     9    1
    17     8    35    1
    18     9    21    1
    19     9    10    2
    20    10    11    1
    21    11    12    2
    22    12    13    1
    23    12    21    1
    24    13    19   ar
    25    13    14   ar
    26    14    15    1
    27    14    16   ar
    28    16    17   ar
    29    16    36    1
    30    17    18   ar
    31    17    37    1
    32    18    19   ar
    33    18    38    1
    34    19    20    1
    35    22    26   am
    36    22    23    1
    37    23    24    1
    38    23    39    1
    39    23    40    1
    40    24    25    1
    41    24    41    1
    42    24    42    1
    43    25    26    1
    44    25    43    1
    45    25    44    1
    46    26    27    2
@<TRIPOS>SUBSTRUCTURE
     1 ZINC000186105981        1 TEMP              0 ****  ****    0 ROOT


##########                                Name:    ZINC000493443319
##########                DOCK_Rotatable_Bonds:                   6
##########                         Heavy_Atoms:                  25
##########                    Molecular_Weight:             348.399
##########                DOCK_Rotatable_Bonds:                   6
##########                       Formal_Charge:        -3.27826e-07
##########                     HBond_Acceptors:                   7
##########                        HBond_Donors:                   0
##########                         Heavy_Atoms:                  25
##########                          Grid_Score:          -26.920977
##########                     Grid_vdw_energy:          -26.605076
##########                      Grid_es_energy:           -0.315901
##########           Internal_energy_repulsive:           50.110470

@<TRIPOS>MOLECULE
ZINC000493443319
 49 51 1 0 0
SMALL
USER_CHARGES


@<TRIPOS>ATOM
      1 C1         -4.5575    2.0433   51.9581 C.3     1  <0>        -0.1500
      2 C2         -6.0274    1.7836   52.2938 C.3     1  <0>         0.0500
      3 O3         -6.3535    0.4266   51.9870 O.3     1  <0>        -0.3200
      4 C4         -7.5641   -0.0278   52.4079 C.ar    1  <0>         0.1000
      5 C5         -8.4618    0.8435   53.0069 C.ar    1  <0>        -0.1700
      6 C6         -9.6915    0.3820   53.4345 C.ar    1  <0>        -0.1100
      7 C7        -10.0288   -0.9526   53.2644 C.ar    1  <0>         0.0800
      8 O8        -11.2393   -1.4069   53.6856 O.3     1  <0>        -0.3000
      9 C9        -12.3103   -1.3717   52.7401 C.3     1  <0>         0.1000
     10 C10       -12.9638    0.0116   52.7610 C.3     1  <0>        -0.1800
     11 C11       -11.7639   -1.6566   51.3397 C.3     1  <0>        -0.1500
     12 C12       -13.3343   -2.4165   53.1020 C.2     1  <0>         0.5100
     13 O13       -13.7180   -3.2052   52.2644 O.2     1  <0>        -0.5200
     14 N14       -13.8236   -2.4744   54.3564 N.am    1  <0>        -0.6000
     15 C15       -14.8214   -3.4911   54.7122 C.3     1  <0>         0.0700
     16 C16       -14.2964   -4.3160   55.8982 C.3     1  <0>         0.1300
     17 N17       -13.7651   -3.3704   56.8898 N.am    1  <0>        -0.6300
     18 C18       -14.0685   -3.2713   58.1851 C.2     1  <0>         0.6500
     19 O19       -14.7392   -4.0943   58.7760 O.2     1  <0>        -0.5200
     20 O20       -13.5635   -2.1780   58.7723 O.3     1  <0>        -0.3200
     21 C21       -12.7371   -1.4503   57.8160 C.3     1  <0>         0.0500
     22 C22       -12.7821   -2.3194   56.5488 C.3     1  <0>         0.0800
     23 H23       -11.8045   -2.7429   56.3186 H       1  <0>         0.1100
     24 C24       -13.3554   -1.5231   55.3760 C.3     1  <0>         0.1000
     25 C25        -9.1317   -1.8235   52.6641 C.ar    1  <0>        -0.1800
     26 C26        -7.9034   -1.3611   52.2331 C.ar    1  <0>        -0.1100
     27 H27        -4.3087    3.0784   52.1920 H       1  <0>         0.0800
     28 H28        -3.9271    1.3763   52.5462 H       1  <0>         0.0700
     29 H29        -4.3893    1.8603   50.8968 H       1  <0>         0.0700
     30 H30        -6.1956    1.9667   53.3551 H       1  <0>         0.0600
     31 H31        -6.6577    2.4506   51.7057 H       1  <0>         0.0600
     32 H32        -8.1991    1.8827   53.1394 H       1  <0>         0.1400
     33 H33       -10.3902    1.0602   53.9015 H       1  <0>         0.1400
     34 H34       -12.2624    0.7506   52.3736 H       1  <0>         0.0800
     35 H35       -13.8592   -0.0002   52.1396 H       1  <0>         0.0900
     36 H36       -13.2352    0.2698   53.7847 H       1  <0>         0.0800
     37 H37       -11.2211   -2.6018   51.3469 H       1  <0>         0.0800
     38 H38       -12.5911   -1.7179   50.6326 H       1  <0>         0.0900
     39 H39       -11.0903   -0.8530   51.0421 H       1  <0>         0.0900
     40 H40       -15.7550   -3.0033   54.9921 H       1  <0>         0.0800
     41 H41       -14.9931   -4.1475   53.8591 H       1  <0>         0.1300
     42 H42       -15.1101   -4.8942   56.3364 H       1  <0>         0.1100
     43 H43       -13.5041   -4.9851   55.5626 H       1  <0>         0.0800
     44 H44       -13.1589   -0.4648   57.6186 H       1  <0>         0.1100
     45 H45       -11.7146   -1.3628   58.1833 H       1  <0>         0.1100
     46 H46       -12.5820   -0.8817   54.9535 H       1  <0>         0.1100
     47 H47       -14.1926   -0.9148   55.7184 H       1  <0>         0.0800
     48 H48        -9.3944   -2.8626   52.5312 H       1  <0>         0.1600
     49 H49        -7.2049   -2.0394   51.7656 H       1  <0>         0.1300
@<TRIPOS>BOND
     1     1     2    1
     2     1    27    1
     3     1    28    1
     4     1    29    1
     5     2     3    1
     6     2    30    1
     7     2    31    1
     8     3     4    1
     9     4    26   ar
    10     4     5   ar
    11     5     6   ar
    12     5    32    1
    13     6     7   ar
    14     6    33    1
    15     7     8    1
    16     7    25   ar
    17     8     9    1
    18     9    10    1
    19     9    11    1
    20     9    12    1
    21    10    34    1
    22    10    35    1
    23    10    36    1
    24    11    37    1
    25    11    38    1
    26    11    39    1
    27    12    13    2
    28    12    14   am
    29    14    24    1
    30    14    15    1
    31    15    16    1
    32    15    40    1
    33    15    41    1
    34    16    17    1
    35    16    42    1
    36    16    43    1
    37    17    22    1
    38    17    18   am
    39    18    19    2
    40    18    20    1
    41    20    21    1
    42    21    22    1
    43    21    44    1
    44    21    45    1
    45    22    23    1
    46    22    24    1
    47    24    46    1
    48    24    47    1
    49    25    26   ar
    50    25    48    1
    51    26    49    1
@<TRIPOS>SUBSTRUCTURE
     1 <0>         1 TEMP              0 ****  ****    0 ROOT


##########                                Name:    ZINC000893400114
##########                DOCK_Rotatable_Bonds:                   6
##########                         Heavy_Atoms:                  27
##########                    Molecular_Weight:             381.472
##########                DOCK_Rotatable_Bonds:                   6
##########                       Formal_Charge:           0.0300001
##########                     HBond_Acceptors:                   8
##########                        HBond_Donors:                   1
##########                         Heavy_Atoms:                  27
##########                          Grid_Score:          -26.835117
##########                     Grid_vdw_energy:          -25.226791
##########                      Grid_es_energy:           -1.608325
##########           Internal_energy_repulsive:           81.293442

@<TRIPOS>MOLECULE
ZINC000893400114
 58 61 1 0 0
SMALL
USER_CHARGES


@<TRIPOS>ATOM
      1 O1          0.2369    4.5385   48.1779 O.2     1  ZINC000893400114   -0.5600
      2 C2         -0.0224    3.8907   47.1821 C.2     1  ZINC000893400114    0.7100
      3 N3          0.4472    4.2835   45.9815 N.am    1  ZINC000893400114   -0.7300
      4 C4          1.2651    5.4943   45.8752 C.3     1  ZINC000893400114    0.1400
      5 H5          0.9900    6.2087   46.6512 H       1  ZINC000893400114    0.1200
      6 C6          1.1104    6.1307   44.4744 C.3     1  ZINC000893400114   -0.1400
      7 C7          2.3017    5.5085   43.7126 C.3     1  ZINC000893400114    0.1000
      8 N8          3.2913    5.1705   44.7423 N.am    1  ZINC000893400114   -0.6200
      9 C9          4.7039    4.8916   44.4714 C.3     1  ZINC000893400114    0.1600
     10 C10         4.8882    3.3951   44.2018 C.3     1  ZINC000893400114   -0.1700
     11 C11         6.3519    3.1258   43.8427 C.3     1  ZINC000893400114    0.0700
     12 O12         6.7150    3.9136   42.7071 O.3     1  ZINC000893400114   -0.3800
     13 C13         6.6078    5.3231   42.9164 C.3     1  ZINC000893400114    0.0700
     14 C14         5.1545    5.6808   43.2383 C.3     1  ZINC000893400114   -0.1700
     15 C15         2.7352    5.1502   45.9694 C.2     1  ZINC000893400114    0.5100
     16 O16         3.3272    4.8932   46.9963 O.2     1  ZINC000893400114   -0.4900
     17 N17        -0.7749    2.7768   47.2799 N.am    1  ZINC000893400114   -0.6300
     18 C18        -1.0969    1.9734   46.0898 C.3     1  ZINC000893400114    0.0800
     19 C19        -0.7554    0.5090   46.3882 C.3     1  ZINC000893400114    0.0500
     20 O20        -1.3881    0.1174   47.6088 O.3     1  ZINC000893400114   -0.3800
     21 C21        -0.9469    0.8462   48.7569 C.3     1  ZINC000893400114    0.0600
     22 C22        -1.2935    2.3248   48.5806 C.3     1  ZINC000893400114    0.1400
     23 H23        -2.3756    2.4533   48.6029 H       1  ZINC000893400114    0.0800
     24 C24        -0.6544    3.1414   49.7055 C.3     1  ZINC000893400114   -0.1200
     25 C25        -1.0338    2.5326   51.0569 C.3     1  ZINC000893400114    0.0700
     26 H26        -0.7072    1.4936   51.0990 H       1  ZINC000893400114    0.0800
     27 C27        -2.5630    2.6092   51.2551 C.3     1  ZINC000893400114   -0.1500
     28 C28        -2.6826    2.9649   52.7621 C.3     1  ZINC000893400114   -0.1600
     29 C29        -1.4335    3.8618   52.9527 C.3     1  ZINC000893400114    0.0500
     30 O30        -0.4204    3.2781   52.1151 O.3     1  ZINC000893400114   -0.3800
     31 H31         0.2437    3.7645   45.1877 H       1  ZINC000893400114    0.4000
     32 H32         0.1630    5.8438   44.0181 H       1  ZINC000893400114    0.1000
     33 H33         1.2041    7.2153   44.5262 H       1  ZINC000893400114    0.1000
     34 H34         1.9839    4.6092   43.1852 H       1  ZINC000893400114    0.0700
     35 H35         2.7191    6.2306   43.0108 H       1  ZINC000893400114    0.0800
     36 H36         5.3050    5.1853   45.3319 H       1  ZINC000893400114    0.0900
     37 H37         4.6220    2.8288   45.0943 H       1  ZINC000893400114    0.0800
     38 H38         4.2482    3.0928   43.3730 H       1  ZINC000893400114    0.0900
     39 H39         6.9880    3.3906   44.6872 H       1  ZINC000893400114    0.0500
     40 H40         6.4801    2.0691   43.6081 H       1  ZINC000893400114    0.1000
     41 H41         7.2473    5.6167   43.7487 H       1  ZINC000893400114    0.0500
     42 H42         6.9204    5.8493   42.0145 H       1  ZINC000893400114    0.1000
     43 H43         4.5198    5.4245   42.3899 H       1  ZINC000893400114    0.0900
     44 H44         5.0786    6.7489   43.4415 H       1  ZINC000893400114    0.0700
     45 H45        -2.1591    2.0637   45.8624 H       1  ZINC000893400114    0.0800
     46 H46        -0.5083    2.3221   45.2413 H       1  ZINC000893400114    0.0800
     47 H47        -1.1131   -0.1213   45.5741 H       1  ZINC000893400114    0.1100
     48 H48         0.3247    0.3999   46.4866 H       1  ZINC000893400114    0.0500
     49 H49        -1.4423    0.4584   49.6469 H       1  ZINC000893400114    0.1300
     50 H50         0.1325    0.7383   48.8639 H       1  ZINC000893400114    0.0500
     51 H51         0.4297    3.1289   49.5930 H       1  ZINC000893400114    0.0800
     52 H52        -1.0128    4.1698   49.6568 H       1  ZINC000893400114    0.1100
     53 H53        -2.9955    3.3949   50.6356 H       1  ZINC000893400114    0.0800
     54 H54        -3.0300    1.6470   51.0453 H       1  ZINC000893400114    0.0800
     55 H55        -3.5989    3.5197   52.9633 H       1  ZINC000893400114    0.0800
     56 H56        -2.6226    2.0708   53.3827 H       1  ZINC000893400114    0.0800
     57 H57        -1.6479    4.8818   52.6335 H       1  ZINC000893400114    0.0600
     58 H58        -1.1146    3.8499   53.9949 H       1  ZINC000893400114    0.0800
@<TRIPOS>BOND
     1     1     2    2
     2     2     3   am
     3     2    17   am
     4     3     4    1
     5     3    31    1
     6     4     5    1
     7     4    15    1
     8     4     6    1
     9     6     7    1
    10     6    32    1
    11     6    33    1
    12     7     8    1
    13     7    34    1
    14     7    35    1
    15     8     9    1
    16     8    15   am
    17     9    14    1
    18     9    10    1
    19     9    36    1
    20    10    11    1
    21    10    37    1
    22    10    38    1
    23    11    12    1
    24    11    39    1
    25    11    40    1
    26    12    13    1
    27    13    14    1
    28    13    41    1
    29    13    42    1
    30    14    43    1
    31    14    44    1
    32    15    16    2
    33    17    22    1
    34    17    18    1
    35    18    19    1
    36    18    45    1
    37    18    46    1
    38    19    20    1
    39    19    47    1
    40    19    48    1
    41    20    21    1
    42    21    22    1
    43    21    49    1
    44    21    50    1
    45    22    23    1
    46    22    24    1
    47    24    25    1
    48    24    51    1
    49    24    52    1
    50    25    26    1
    51    25    30    1
    52    25    27    1
    53    27    28    1
    54    27    53    1
    55    27    54    1
    56    28    29    1
    57    28    55    1
    58    28    56    1
    59    29    30    1
    60    29    57    1
    61    29    58    1
@<TRIPOS>SUBSTRUCTURE
     1 ZINC000893400114        1 TEMP              0 ****  ****    0 ROOT


##########                                Name:    ZINC000675319328
##########                DOCK_Rotatable_Bonds:                   7
##########                         Heavy_Atoms:                  26
##########                    Molecular_Weight:             363.475
##########                DOCK_Rotatable_Bonds:                   7
##########                       Formal_Charge:          -0.0200007
##########                     HBond_Acceptors:                   6
##########                        HBond_Donors:                   1
##########                         Heavy_Atoms:                  26
##########                          Grid_Score:          -26.822735
##########                     Grid_vdw_energy:          -26.112402
##########                      Grid_es_energy:           -0.710334
##########           Internal_energy_repulsive:           21.474667

@<TRIPOS>MOLECULE
ZINC000675319328
 56 58 1 0 0
SMALL
USER_CHARGES


@<TRIPOS>ATOM
      1 C1        -10.0933   -1.3454   60.8245 C.3     1  ZINC000675319328   -0.1600
      2 C2         -9.5651   -1.3637   59.3888 C.3     1  ZINC000675319328    0.1600
      3 H3         -8.8213   -2.1537   59.2852 H       1  ZINC000675319328    0.0900
      4 C4         -8.9233   -0.0133   59.0642 C.3     1  ZINC000675319328   -0.1200
      5 C5        -10.0155    1.0005   58.7177 C.3     1  ZINC000675319328   -0.1200
      6 H6        -10.9737    0.6945   59.1377 H       1  ZINC000675319328    0.0800
      7 C7         -9.6259    2.4218   59.2077 C.3     1  ZINC000675319328   -0.1500
      8 C8        -10.3952    3.3040   58.1925 C.3     1  ZINC000675319328    0.0500
      9 O9        -10.3198    2.5942   56.9460 O.3     1  ZINC000675319328   -0.3900
     10 C10       -10.1217    1.1930   57.1897 C.3     1  ZINC000675319328    0.0500
     11 N11       -10.6737   -1.6124   58.4638 N.am    1  ZINC000675319328   -0.7400
     12 C12       -10.9809   -2.8744   58.1039 C.2     1  ZINC000675319328    0.7000
     13 O13       -10.3380   -3.8064   58.5470 O.2     1  ZINC000675319328   -0.5900
     14 N14       -12.0007   -3.1032   57.2529 N.am    1  ZINC000675319328   -0.6200
     15 C15       -12.3130   -4.4961   56.8775 C.3     1  ZINC000675319328    0.1300
     16 C16       -13.8312   -4.7408   56.8515 C.3     1  ZINC000675319328   -0.1300
     17 C17       -14.4807   -4.0280   58.0171 C.3     1  ZINC000675319328    0.0700
     18 N18       -14.9061   -2.6971   57.5869 N.3     1  ZINC000675319328   -0.5500
     19 C19       -16.1587   -2.3058   58.2469 C.3     1  ZINC000675319328    0.1000
     20 C20       -15.8588   -1.7995   59.6343 C.ar    1  ZINC000675319328   -0.0900
     21 C21       -15.6617   -2.6952   60.6688 C.ar    1  ZINC000675319328   -0.0900
     22 C22       -15.3865   -2.2320   61.9414 C.ar    1  ZINC000675319328   -0.1500
     23 C23       -15.3077   -0.8704   62.1801 C.ar    1  ZINC000675319328    0.1000
     24 F24       -15.0383   -0.4166   63.4238 F       1  ZINC000675319328   -0.1400
     25 C25       -15.5048    0.0257   61.1431 C.ar    1  ZINC000675319328   -0.1500
     26 C26       -15.7751   -0.4400   59.8702 C.ar    1  ZINC000675319328   -0.0700
     27 C27       -13.9401   -1.6681   57.6819 C.3     1  ZINC000675319328    0.0500
     28 C28       -12.7523   -1.9729   56.7462 C.3     1  ZINC000675319328    0.1100
     29 H29       -10.5505   -2.3075   61.0558 H       1  ZINC000675319328    0.0600
     30 H30        -9.2685   -1.1604   61.5128 H       1  ZINC000675319328    0.0700
     31 H31       -10.8371   -0.5554   60.9281 H       1  ZINC000675319328    0.0500
     32 H32        -8.3614    0.3392   59.9292 H       1  ZINC000675319328    0.0700
     33 H33        -8.2496   -0.1262   58.2148 H       1  ZINC000675319328    0.0900
     34 H34        -9.9764    2.5966   60.2248 H       1  ZINC000675319328    0.0800
     35 H35        -8.5504    2.5824   59.1318 H       1  ZINC000675319328    0.0800
     36 H36       -11.4344    3.4173   58.5011 H       1  ZINC000675319328    0.0600
     37 H37        -9.9181    4.2799   58.1016 H       1  ZINC000675319328    0.0900
     38 H38        -9.1992    0.8616   56.7128 H       1  ZINC000675319328    0.0700
     39 H39       -10.9663    0.6265   56.7976 H       1  ZINC000675319328    0.0700
     40 H40       -11.1865   -0.8688   58.1104 H       1  ZINC000675319328    0.3900
     41 H41       -11.9018   -4.7000   55.8888 H       1  ZINC000675319328    0.0600
     42 H42       -11.8549   -5.1718   57.5997 H       1  ZINC000675319328    0.0900
     43 H43       -14.2442   -4.3599   55.9175 H       1  ZINC000675319328    0.0800
     44 H44       -14.0276   -5.8103   56.9252 H       1  ZINC000675319328    0.0800
     45 H45       -15.3474   -4.5963   58.3546 H       1  ZINC000675319328    0.0700
     46 H46       -13.7639   -3.9355   58.8329 H       1  ZINC000675319328    0.0400
     47 H47       -16.6430   -1.5183   57.6696 H       1  ZINC000675319328    0.0900
     48 H48       -16.8210   -3.1692   58.3106 H       1  ZINC000675319328    0.0400
     49 H49       -15.7231   -3.7571   60.4824 H       1  ZINC000675319328    0.1300
     50 H50       -15.2333   -2.9319   62.7496 H       1  ZINC000675319328    0.1400
     51 H51       -15.4440    1.0879   61.3281 H       1  ZINC000675319328    0.1400
     52 H52       -15.9285    0.2588   59.0612 H       1  ZINC000675319328    0.1300
     53 H53       -14.3933   -0.7190   57.3958 H       1  ZINC000675319328    0.0900
     54 H54       -13.5825   -1.6014   58.7093 H       1  ZINC000675319328    0.0300
     55 H55       -12.1001   -1.1012   56.6923 H       1  ZINC000675319328    0.0700
     56 H56       -13.1263   -2.2074   55.7497 H       1  ZINC000675319328    0.0900
@<TRIPOS>BOND
     1     1     2    1
     2     1    29    1
     3     1    30    1
     4     1    31    1
     5     2     3    1
     6     2     4    1
     7     2    11    1
     8     4     5    1
     9     4    32    1
    10     4    33    1
    11     5     6    1
    12     5    10    1
    13     5     7    1
    14     7     8    1
    15     7    34    1
    16     7    35    1
    17     8     9    1
    18     8    36    1
    19     8    37    1
    20     9    10    1
    21    10    38    1
    22    10    39    1
    23    11    12   am
    24    11    40    1
    25    12    13    2
    26    12    14   am
    27    14    28    1
    28    14    15    1
    29    15    16    1
    30    15    41    1
    31    15    42    1
    32    16    17    1
    33    16    43    1
    34    16    44    1
    35    17    18    1
    36    17    45    1
    37    17    46    1
    38    18    19    1
    39    18    27    1
    40    19    20    1
    41    19    47    1
    42    19    48    1
    43    20    26   ar
    44    20    21   ar
    45    21    22   ar
    46    21    49    1
    47    22    23   ar
    48    22    50    1
    49    23    24    1
    50    23    25   ar
    51    25    26   ar
    52    25    51    1
    53    26    52    1
    54    27    28    1
    55    27    53    1
    56    27    54    1
    57    28    55    1
    58    28    56    1
@<TRIPOS>SUBSTRUCTURE
     1 ZINC000675319328        1 TEMP              0 ****  ****    0 ROOT


##########                                Name:    ZINC000867639366
##########                DOCK_Rotatable_Bonds:                   6
##########                         Heavy_Atoms:                  25
##########                    Molecular_Weight:             388.509
##########                DOCK_Rotatable_Bonds:                   6
##########                       Formal_Charge:          0.00999961
##########                     HBond_Acceptors:                   9
##########                        HBond_Donors:                   1
##########                         Heavy_Atoms:                  25
##########                          Grid_Score:          -26.795448
##########                     Grid_vdw_energy:          -26.292725
##########                      Grid_es_energy:           -0.502724
##########           Internal_energy_repulsive:           40.118950

@<TRIPOS>MOLECULE
ZINC000867639366
 49 51 1 0 0
SMALL
USER_CHARGES


@<TRIPOS>ATOM
      1 C1         -8.8862    0.0269   63.5267 C.3     1  ZINC000867639366    0.0300
      2 O2         -9.7157   -0.1343   62.3743 O.3     1  ZINC000867639366   -0.3800
      3 C3         -9.5320    0.8756   61.3801 C.3     1  ZINC000867639366    0.0800
      4 H4         -8.7108    1.5297   61.6734 H       1  ZINC000867639366    0.0800
      5 C5        -10.8158    1.6974   61.2434 C.3     1  ZINC000867639366   -0.1400
      6 C6        -11.9763    0.7746   60.8645 C.3     1  ZINC000867639366   -0.1200
      7 C7        -11.6788    0.1145   59.5145 C.3     1  ZINC000867639366    0.1500
      8 H8        -11.6511    0.8750   58.7342 H       1  ZINC000867639366    0.0800
      9 C9        -12.7685   -0.9104   59.1934 C.3     1  ZINC000867639366   -0.1900
     10 N10       -10.3746   -0.5575   59.5939 N.am    1  ZINC000867639366   -0.9800
     11 S11       -10.2238   -2.1569   59.1922 S.o2    1  ZINC000867639366    2.6900
     12 O12        -8.8339   -2.4506   59.2291 O.2     1  ZINC000867639366   -0.9500
     13 O13       -11.1870   -2.8578   59.9669 O.2     1  ZINC000867639366   -0.9400
     14 C14       -10.7227   -2.3216   57.5104 C.ar    1  ZINC000867639366   -0.6300
     15 C15       -11.3684   -3.4695   57.0903 C.ar    1  ZINC000867639366   -0.0500
     16 C16       -11.7598   -3.5988   55.7708 C.ar    1  ZINC000867639366   -0.0400
     17 C17       -11.5060   -2.5801   54.8715 C.ar    1  ZINC000867639366   -0.6300
     18 S18       -12.0043   -2.7450   53.1896 S.o2    1  ZINC000867639366    2.7000
     19 O19       -11.3670   -1.6936   52.4773 O.2     1  ZINC000867639366   -0.9400
     20 O20       -11.8452   -4.1173   52.8567 O.2     1  ZINC000867639366   -0.9500
     21 N21       -13.6297   -2.4342   53.1272 N.am    1  ZINC000867639366   -1.0800
     22 C22       -14.5639   -3.2631   53.8928 C.3     1  ZINC000867639366    0.0800
     23 C23       -14.9056   -2.8131   55.3147 C.3     1  ZINC000867639366   -0.1800
     24 C24       -15.9429   -2.6751   54.1986 C.3     1  ZINC000867639366   -0.1900
     25 C25       -10.8615   -1.4316   55.2920 C.ar    1  ZINC000867639366   -0.0400
     26 C26       -10.4735   -1.3008   56.6123 C.ar    1  ZINC000867639366   -0.0400
     27 C27        -9.2060    0.2167   60.0361 C.3     1  ZINC000867639366    0.1200
     28 H28        -7.8387   -0.0033   63.2274 H       1  ZINC000867639366    0.0400
     29 H29        -9.1019    0.9856   63.9984 H       1  ZINC000867639366    0.0400
     30 H30        -9.0856   -0.7788   64.2333 H       1  ZINC000867639366    0.0900
     31 H31       -11.0361    2.1872   62.1920 H       1  ZINC000867639366    0.0700
     32 H32       -10.6833    2.4516   60.4677 H       1  ZINC000867639366    0.0700
     33 H33       -12.0935    0.0052   61.6277 H       1  ZINC000867639366    0.0800
     34 H34       -12.8948    1.3568   60.7902 H       1  ZINC000867639366    0.0800
     35 H35       -13.7102   -0.3936   59.0084 H       1  ZINC000867639366    0.0700
     36 H36       -12.4846   -1.4768   58.3065 H       1  ZINC000867639366    0.0600
     37 H37       -12.8871   -1.5909   60.0365 H       1  ZINC000867639366    0.1000
     38 H38       -11.5666   -4.2655   57.7928 H       1  ZINC000867639366    0.1600
     39 H39       -12.2635   -4.4959   55.4424 H       1  ZINC000867639366    0.1500
     40 H40       -13.9632   -1.7033   52.5836 H       1  ZINC000867639366    0.4200
     41 H41       -14.5043   -4.3351   53.7045 H       1  ZINC000867639366    0.1400
     42 H42       -15.0707   -3.5891   56.0622 H       1  ZINC000867639366    0.1100
     43 H43       -14.4353   -1.9003   55.6804 H       1  ZINC000867639366    0.1000
     44 H44       -16.1551   -1.6715   53.8300 H       1  ZINC000867639366    0.1000
     45 H45       -16.7905   -3.3602   54.2117 H       1  ZINC000867639366    0.1000
     46 H46       -10.6636   -0.6356   54.5895 H       1  ZINC000867639366    0.1500
     47 H47        -9.9701   -0.4035   56.9408 H       1  ZINC000867639366    0.1500
     48 H48        -8.9766    0.9856   59.2983 H       1  ZINC000867639366    0.0900
     49 H49        -8.3500   -0.4479   60.1525 H       1  ZINC000867639366    0.1000
@<TRIPOS>BOND
     1     1     2    1
     2     1    28    1
     3     1    29    1
     4     1    30    1
     5     2     3    1
     6     3     4    1
     7     3    27    1
     8     3     5    1
     9     5     6    1
    10     5    31    1
    11     5    32    1
    12     6     7    1
    13     6    33    1
    14     6    34    1
    15     7     8    1
    16     7     9    1
    17     7    10    1
    18     9    35    1
    19     9    36    1
    20     9    37    1
    21    10    11   am
    22    10    27    1
    23    11    12    2
    24    11    13    2
    25    11    14    1
    26    14    26   ar
    27    14    15   ar
    28    15    16   ar
    29    15    38    1
    30    16    17   ar
    31    16    39    1
    32    17    18    1
    33    17    25   ar
    34    18    19    2
    35    18    20    2
    36    18    21   am
    37    21    22    1
    38    21    40    1
    39    22    24    1
    40    22    23    1
    41    22    41    1
    42    23    24    1
    43    23    42    1
    44    23    43    1
    45    24    44    1
    46    24    45    1
    47    25    26   ar
    48    25    46    1
    49    26    47    1
    50    27    48    1
    51    27    49    1
@<TRIPOS>SUBSTRUCTURE
     1 ZINC000867639366        1 TEMP              0 ****  ****    0 ROOT


##########                                Name:    ZINC000864477301
##########                DOCK_Rotatable_Bonds:                   6
##########                         Heavy_Atoms:                  26
##########                    Molecular_Weight:             393.891
##########                DOCK_Rotatable_Bonds:                   6
##########                       Formal_Charge:         -0.00999978
##########                     HBond_Acceptors:                   7
##########                        HBond_Donors:                   1
##########                         Heavy_Atoms:                  26
##########                          Grid_Score:          -26.756754
##########                     Grid_vdw_energy:          -27.422737
##########                      Grid_es_energy:            0.665983
##########           Internal_energy_repulsive:            8.747831

@<TRIPOS>MOLECULE
ZINC000864477301
 46 47 1 0 0
SMALL
USER_CHARGES


@<TRIPOS>ATOM
      1 C1        -14.3058   -2.9381   59.2050 C.3     1  ZINC000864477301   -0.1500
      2 C2        -14.7772   -2.9717   57.7499 C.3     1  ZINC000864477301    0.0600
      3 O3        -14.1249   -4.0671   57.0549 O.3     1  ZINC000864477301   -0.3500
      4 C4        -14.3675   -4.1851   55.7352 C.2     1  ZINC000864477301    0.5100
      5 O5        -14.7009   -5.2576   55.2725 O.2     1  ZINC000864477301   -0.5000
      6 C6        -14.2281   -3.0103   54.8505 C.ar    1  ZINC000864477301   -0.1400
      7 C7        -15.3597   -2.3014   54.4428 C.ar    1  ZINC000864477301   -0.0300
      8 C8        -15.2222   -1.2052   53.6164 C.ar    1  ZINC000864477301   -0.1500
      9 C9        -13.9669   -0.8083   53.1914 C.ar    1  ZINC000864477301   -0.0100
     10 C10       -12.8411   -1.5066   53.5917 C.ar    1  ZINC000864477301   -0.4900
     11 S11       -11.2471   -0.9924   53.0443 S.o     1  ZINC000864477301    1.3800
     12 O12       -10.4754   -2.1814   53.1458 O.2     1  ZINC000864477301   -0.8100
     13 C13       -10.7305    0.1755   54.3326 C.3     1  ZINC000864477301   -0.4600
     14 H14       -11.3909    1.0426   54.3228 H       1  ZINC000864477301    0.1400
     15 C15       -10.8051   -0.5072   55.6996 C.3     1  ZINC000864477301   -0.1400
     16 C16        -9.3146    0.6196   54.0695 C.2     1  ZINC000864477301    0.5500
     17 O17        -8.5998    0.9458   54.9935 O.2     1  ZINC000864477301   -0.5100
     18 N18        -8.8427    0.6543   52.8076 N.am    1  ZINC000864477301   -0.6800
     19 C19        -7.5276    1.0668   52.5632 C.ar    1  ZINC000864477301    0.1400
     20 C20        -7.1852    2.4067   52.6831 C.ar    1  ZINC000864477301   -0.0600
     21 C21        -8.2294    3.4196   53.0764 C.3     1  ZINC000864477301   -0.1100
     22 C22        -5.8863    2.8108   52.4418 C.ar    1  ZINC000864477301   -0.1100
     23 C23        -4.9272    1.8827   52.0812 C.ar    1  ZINC000864477301   -0.1000
     24 C24        -5.2643    0.5467   51.9603 C.ar    1  ZINC000864477301   -0.1100
     25 C25        -6.5602    0.1349   52.2058 C.ar    1  ZINC000864477301   -0.0200
     26 Cl26       -6.9828   -1.5421   52.0545 Cl      1  ZINC000864477301   -0.0600
     27 C27       -12.9635   -2.6005   54.4227 C.ar    1  ZINC000864477301    0.0100
     28 H28       -14.5603   -3.8798   59.6913 H       1  ZINC000864477301    0.0700
     29 H29       -13.2256   -2.7947   59.2338 H       1  ZINC000864477301    0.0700
     30 H30       -14.7955   -2.1158   59.7267 H       1  ZINC000864477301    0.0800
     31 H31       -15.8573   -3.1151   57.7211 H       1  ZINC000864477301    0.0700
     32 H32       -14.5226   -2.0300   57.2636 H       1  ZINC000864477301    0.0700
     33 H33       -16.3403   -2.6105   54.7733 H       1  ZINC000864477301    0.1400
     34 H34       -16.0967   -0.6558   53.3002 H       1  ZINC000864477301    0.1400
     35 H35       -13.8651    0.0500   52.5439 H       1  ZINC000864477301    0.1500
     36 H36       -10.4947    0.1947   56.4738 H       1  ZINC000864477301    0.0700
     37 H37       -11.8293   -0.8284   55.8900 H       1  ZINC000864477301    0.0700
     38 H38       -10.1447   -1.3743   55.7094 H       1  ZINC000864477301    0.0700
     39 H39        -9.4145    0.3936   52.0686 H       1  ZINC000864477301    0.4100
     40 H40        -8.2509    3.5164   54.1619 H       1  ZINC000864477301    0.0800
     41 H41        -7.9863    4.3840   52.6304 H       1  ZINC000864477301    0.0700
     42 H42        -9.2062    3.0911   52.7216 H       1  ZINC000864477301    0.0700
     43 H43        -5.6197    3.8533   52.5345 H       1  ZINC000864477301    0.1400
     44 H44        -3.9127    2.2015   51.8932 H       1  ZINC000864477301    0.1400
     45 H45        -4.5128   -0.1759   51.6781 H       1  ZINC000864477301    0.1400
     46 H46       -12.0841   -3.1444   54.7346 H       1  ZINC000864477301    0.1400
@<TRIPOS>BOND
     1     1     2    1
     2     1    28    1
     3     1    29    1
     4     1    30    1
     5     2     3    1
     6     2    31    1
     7     2    32    1
     8     3     4    1
     9     4     5    2
    10     4     6    1
    11     6    27   ar
    12     6     7   ar
    13     7     8   ar
    14     7    33    1
    15     8     9   ar
    16     8    34    1
    17     9    10   ar
    18     9    35    1
    19    10    11    1
    20    10    27   ar
    21    11    12    2
    22    11    13    1
    23    13    14    1
    24    13    15    1
    25    13    16    1
    26    15    36    1
    27    15    37    1
    28    15    38    1
    29    16    17    2
    30    16    18   am
    31    18    19    1
    32    18    39    1
    33    19    25   ar
    34    19    20   ar
    35    20    21    1
    36    20    22   ar
    37    21    40    1
    38    21    41    1
    39    21    42    1
    40    22    23   ar
    41    22    43    1
    42    23    24   ar
    43    23    44    1
    44    24    25   ar
    45    24    45    1
    46    25    26    1
    47    27    46    1
@<TRIPOS>SUBSTRUCTURE
     1 ZINC000864477301        1 TEMP              0 ****  ****    0 ROOT


##########                                Name:    ZINC000176150038
##########                DOCK_Rotatable_Bonds:                   4
##########                         Heavy_Atoms:                  23
##########                    Molecular_Weight:             333.712
##########                DOCK_Rotatable_Bonds:                   4
##########                       Formal_Charge:        -2.23517e-07
##########                     HBond_Acceptors:                  10
##########                        HBond_Donors:                   1
##########                         Heavy_Atoms:                  23
##########                          Grid_Score:          -26.752140
##########                     Grid_vdw_energy:          -26.696447
##########                      Grid_es_energy:           -0.055692
##########           Internal_energy_repulsive:           25.065819

@<TRIPOS>MOLECULE
ZINC000176150038
 32 34 1 0 0
SMALL
USER_CHARGES


@<TRIPOS>ATOM
      1 C1        -13.9370   -2.2844   57.0874 C.3     1  ZINC000176150038   -0.0900
      2 C2        -13.7695   -3.7138   56.6405 C.2     1  ZINC000176150038    0.2600
      3 N3        -13.9210   -4.7804   57.3814 N.2     1  ZINC000176150038   -0.3300
      4 N4        -13.7057   -5.8435   56.6939 N.2     1  ZINC000176150038   -0.0300
      5 N5        -13.4047   -5.5347   55.4787 N.2     1  ZINC000176150038   -0.0700
      6 N6        -13.4405   -4.1314   55.3990 N.pl3   1  ZINC000176150038   -0.3300
      7 C7        -13.1821   -3.3351   54.2729 C.ar    1  ZINC000176150038    0.1400
      8 C8        -14.1792   -3.1192   53.3317 C.ar    1  ZINC000176150038   -0.1000
      9 C9        -13.9267   -2.3348   52.2220 C.ar    1  ZINC000176150038   -0.1100
     10 C10       -12.6802   -1.7626   52.0459 C.ar    1  ZINC000176150038    0.1000
     11 F11       -12.4362   -0.9959   50.9606 F       1  ZINC000176150038   -0.1200
     12 C12       -11.6772   -1.9759   52.9866 C.ar    1  ZINC000176150038    0.1300
     13 N13       -10.4155   -1.3973   52.8091 N.am    1  ZINC000176150038   -0.6500
     14 C14       -10.1881   -0.1360   53.2260 C.2     1  ZINC000176150038    0.5700
     15 O15       -11.0784    0.4987   53.7560 O.2     1  ZINC000176150038   -0.4800
     16 C16        -8.8508    0.4774   53.0378 C.ar    1  ZINC000176150038    0.1400
     17 N17        -8.5981    1.7028   53.4927 N.ar    1  ZINC000176150038   -0.4800
     18 C18        -7.4133    2.2501   53.3283 C.ar    1  ZINC000176150038    0.3000
     19 N19        -6.4319    1.6192   52.7130 N.ar    1  ZINC000176150038   -0.4800
     20 C20        -6.6009    0.3997   52.2321 C.ar    1  ZINC000176150038    0.1700
     21 C21        -7.8333   -0.2230   52.3856 C.ar    1  ZINC000176150038   -0.1000
     22 Cl22       -8.1052   -1.8241   51.7722 Cl      1  ZINC000176150038    0.0100
     23 C23       -11.9315   -2.7587   54.1030 C.ar    1  ZINC000176150038   -0.0800
     24 H24       -14.9733   -1.9781   56.9441 H       1  ZINC000176150038    0.1100
     25 H25       -13.6758   -2.2005   58.1422 H       1  ZINC000176150038    0.1100
     26 H26       -13.2832   -1.6408   56.4988 H       1  ZINC000176150038    0.0900
     27 H27       -15.1536   -3.5651   53.4664 H       1  ZINC000176150038    0.1500
     28 H28       -14.7042   -2.1687   51.4910 H       1  ZINC000176150038    0.1600
     29 H29        -9.7048   -1.9040   52.3860 H       1  ZINC000176150038    0.4300
     30 H30        -7.2390    3.2460   53.7081 H       1  ZINC000176150038    0.2200
     31 H31        -5.7903   -0.1076   51.7299 H       1  ZINC000176150038    0.1900
     32 H32       -11.1549   -2.9259   54.8347 H       1  ZINC000176150038    0.1700
@<TRIPOS>BOND
     1     1     2    1
     2     1    24    1
     3     1    25    1
     4     1    26    1
     5     2     6    1
     6     2     3    2
     7     3     4    1
     8     4     5    2
     9     5     6    1
    10     6     7    1
    11     7    23   ar
    12     7     8   ar
    13     8     9   ar
    14     8    27    1
    15     9    10   ar
    16     9    28    1
    17    10    11    1
    18    10    12   ar
    19    12    13    1
    20    12    23   ar
    21    13    14   am
    22    13    29    1
    23    14    15    2
    24    14    16    1
    25    16    21   ar
    26    16    17   ar
    27    17    18   ar
    28    18    19   ar
    29    18    30    1
    30    19    20   ar
    31    20    21   ar
    32    20    31    1
    33    21    22    1
    34    23    32    1
@<TRIPOS>SUBSTRUCTURE
     1 ZINC000176150038        1 TEMP              0 ****  ****    0 ROOT


##########                                Name:    ZINC000010935976
##########                DOCK_Rotatable_Bonds:                   3
##########                         Heavy_Atoms:                  26
##########                    Molecular_Weight:             391.558
##########                DOCK_Rotatable_Bonds:                   3
##########                       Formal_Charge:         -0.00999979
##########                     HBond_Acceptors:                   7
##########                        HBond_Donors:                   1
##########                         Heavy_Atoms:                  26
##########                          Grid_Score:          -26.743294
##########                     Grid_vdw_energy:          -27.084192
##########                      Grid_es_energy:            0.340899
##########           Internal_energy_repulsive:          125.221954

@<TRIPOS>MOLECULE
ZINC000010935976
 51 54 1 0 0
SMALL
USER_CHARGES


@<TRIPOS>ATOM
      1 C1         -6.2183    1.0303   51.4263 C.3     1  ZINC000010935976   -0.0800
      2 C2         -7.3265    0.5931   52.3492 C.2     1  ZINC000010935976   -0.2100
      3 C3         -7.5908    1.1548   53.5127 C.2     1  ZINC000010935976   -0.0400
      4 C4         -6.7968    2.3165   54.0524 C.3     1  ZINC000010935976   -0.1000
      5 C5         -8.7055    0.5681   54.2330 C.2     1  ZINC000010935976   -0.2300
      6 C6         -9.2815   -0.4908   53.5345 C.2     1  ZINC000010935976    0.0900
      7 N7        -10.3317   -1.1477   54.0656 N.2     1  ZINC000010935976   -0.4900
      8 C8        -10.8315   -0.8155   55.2317 C.2     1  ZINC000010935976    0.3400
      9 S9        -12.2052   -1.7175   55.8671 S.3     1  ZINC000010935976    0.0500
     10 C10       -11.7153   -3.3991   55.4110 C.3     1  ZINC000010935976   -0.1000
     11 H11       -10.6290   -3.4583   55.3428 H       1  ZINC000010935976    0.1400
     12 C12       -12.3361   -3.7675   54.0613 C.3     1  ZINC000010935976   -0.1000
     13 C13       -13.7103   -3.1403   53.9125 C.3     1  ZINC000010935976   -0.1300
     14 C14       -14.7450   -3.6960   54.8739 C.3     1  ZINC000010935976   -0.1400
     15 C15       -14.4073   -3.3172   56.3171 C.3     1  ZINC000010935976    0.0700
     16 N16       -13.4851   -4.3250   56.8652 N.am    1  ZINC000010935976   -0.7200
     17 C17       -12.2133   -4.3753   56.4560 C.2     1  ZINC000010935976    0.5400
     18 O18       -11.4619   -5.2072   56.9188 O.2     1  ZINC000010935976   -0.5200
     19 N19       -10.3125    0.2120   55.9651 N.am    1  ZINC000010935976   -0.5100
     20 C20       -10.9000    0.5507   57.2637 C.3     1  ZINC000010935976    0.1200
     21 C21        -9.9790    0.0666   58.4028 C.3     1  ZINC000010935976   -0.1300
     22 C22        -9.1342    1.3136   58.7639 C.3     1  ZINC000010935976   -0.1300
     23 C23       -10.1567    2.4694   58.6311 C.3     1  ZINC000010935976   -0.1100
     24 C24       -11.0130    2.0784   57.4089 C.3     1  ZINC000010935976   -0.1200
     25 C25        -9.2618    0.9155   55.5005 C.2     1  ZINC000010935976    0.5600
     26 O26        -8.7947    1.8344   56.1513 O.2     1  ZINC000010935976   -0.5000
     27 S27        -8.4346   -0.7227   52.0104 S.3     1  ZINC000010935976    0.2100
     28 H28        -6.2210    0.4051   50.5335 H       1  ZINC000010935976    0.0700
     29 H29        -6.3720    2.0711   51.1415 H       1  ZINC000010935976    0.0800
     30 H30        -5.2602    0.9310   51.9365 H       1  ZINC000010935976    0.0800
     31 H31        -7.2486    3.2511   53.7200 H       1  ZINC000010935976    0.0700
     32 H32        -6.7955    2.2808   55.1418 H       1  ZINC000010935976    0.0800
     33 H33        -5.7720    2.2577   53.6857 H       1  ZINC000010935976    0.0700
     34 H34       -11.6897   -3.4103   53.2595 H       1  ZINC000010935976    0.0900
     35 H35       -12.4269   -4.8515   53.9919 H       1  ZINC000010935976    0.0900
     36 H36       -13.6224   -2.0666   54.0784 H       1  ZINC000010935976    0.0700
     37 H37       -14.0591   -3.3044   52.8930 H       1  ZINC000010935976    0.0800
     38 H38       -15.7250   -3.2936   54.6176 H       1  ZINC000010935976    0.0800
     39 H39       -14.7699   -4.7821   54.7849 H       1  ZINC000010935976    0.0700
     40 H40       -13.9310   -2.3369   56.3361 H       1  ZINC000010935976    0.1100
     41 H41       -15.3201   -3.2945   56.9124 H       1  ZINC000010935976    0.0900
     42 H42       -13.8013   -4.9564   57.5304 H       1  ZINC000010935976    0.4000
     43 H43       -11.8846    0.0927   57.3586 H       1  ZINC000010935976    0.1000
     44 H44       -10.5699   -0.2553   59.2603 H       1  ZINC000010935976    0.0800
     45 H45        -9.3362   -0.7423   58.0559 H       1  ZINC000010935976    0.0700
     46 H46        -8.7604    1.2441   59.7855 H       1  ZINC000010935976    0.0600
     47 H47        -8.3131    1.4414   58.0588 H       1  ZINC000010935976    0.1100
     48 H48       -10.7763    2.5355   59.5254 H       1  ZINC000010935976    0.0600
     49 H49        -9.6435    3.4139   58.4508 H       1  ZINC000010935976    0.0700
     50 H50       -10.6306    2.5678   56.5132 H       1  ZINC000010935976    0.0800
     51 H51       -12.0523    2.3617   57.5750 H       1  ZINC000010935976    0.0700
@<TRIPOS>BOND
     1     1     2    1
     2     1    28    1
     3     1    29    1
     4     1    30    1
     5     2    27    1
     6     2     3    2
     7     3     4    1
     8     3     5    1
     9     4    31    1
    10     4    32    1
    11     4    33    1
    12     5    25    1
    13     5     6    2
    14     6     7    1
    15     6    27    1
    16     7     8    2
    17     8     9    1
    18     8    19    1
    19     9    10    1
    20    10    11    1
    21    10    17    1
    22    10    12    1
    23    12    13    1
    24    12    34    1
    25    12    35    1
    26    13    14    1
    27    13    36    1
    28    13    37    1
    29    14    15    1
    30    14    38    1
    31    14    39    1
    32    15    16    1
    33    15    40    1
    34    15    41    1
    35    16    17   am
    36    16    42    1
    37    17    18    2
    38    19    20    1
    39    19    25   am
    40    20    24    1
    41    20    21    1
    42    20    43    1
    43    21    22    1
    44    21    44    1
    45    21    45    1
    46    22    23    1
    47    22    46    1
    48    22    47    1
    49    23    24    1
    50    23    48    1
    51    23    49    1
    52    24    50    1
    53    24    51    1
    54    25    26    2
@<TRIPOS>SUBSTRUCTURE
     1 ZINC000010935976        1 TEMP              0 ****  ****    0 ROOT


##########                                Name:    ZINC000942890482
##########                DOCK_Rotatable_Bonds:                   8
##########                         Heavy_Atoms:                  25
##########                    Molecular_Weight:             346.445
##########                DOCK_Rotatable_Bonds:                   8
##########                       Formal_Charge:          -0.0100004
##########                     HBond_Acceptors:                   5
##########                        HBond_Donors:                   0
##########                         Heavy_Atoms:                  25
##########                          Grid_Score:          -26.742331
##########                     Grid_vdw_energy:          -26.631372
##########                      Grid_es_energy:           -0.110959
##########           Internal_energy_repulsive:           24.500731

@<TRIPOS>MOLECULE
ZINC000942890482
 52 54 1 0 0
SMALL
USER_CHARGES


@<TRIPOS>ATOM
      1 C1        -13.7681   -5.5653   56.6087 C.3     1  ZINC000942890482   -0.1700
      2 C2        -13.9767   -4.1307   57.0981 C.3     1  ZINC000942890482    0.1000
      3 N3        -13.2695   -3.2043   56.2105 N.am    1  ZINC000942890482   -0.6000
      4 C4        -13.7357   -2.9745   54.9668 C.2     1  ZINC000942890482    0.5700
      5 O5        -14.7428   -3.5360   54.5819 O.2     1  ZINC000942890482   -0.5100
      6 C6        -13.0227   -2.0404   54.0718 C.ar    1  ZINC000942890482   -0.1400
      7 C7        -13.2753   -0.6690   54.1454 C.ar    1  ZINC000942890482   -0.0600
      8 C8        -12.6067    0.1984   53.3081 C.ar    1  ZINC000942890482   -0.1600
      9 C9        -11.6852   -0.2886   52.3940 C.ar    1  ZINC000942890482    0.1300
     10 F10       -11.0327    0.5657   51.5757 F       1  ZINC000942890482   -0.1300
     11 C11       -11.4303   -1.6496   52.3169 C.ar    1  ZINC000942890482   -0.1600
     12 C12       -12.0894   -2.5251   53.1526 C.ar    1  ZINC000942890482   -0.0100
     13 C13       -11.8114   -4.0038   53.0679 C.3     1  ZINC000942890482   -0.1200
     14 C14       -12.0559   -2.5277   56.6745 C.3     1  ZINC000942890482    0.1400
     15 H15       -11.5690   -1.9981   55.8556 H       1  ZINC000942890482    0.1100
     16 C16       -11.0812   -3.5317   57.3449 C.3     1  ZINC000942890482   -0.1500
     17 C17       -10.2836   -2.6404   58.3201 C.3     1  ZINC000942890482    0.1100
     18 N18       -11.0998   -1.4471   58.5878 N.am    1  ZINC000942890482   -0.6200
     19 C19       -10.7453   -0.4138   59.3772 C.2     1  ZINC000942890482    0.5300
     20 O20       -11.5018    0.5221   59.5272 O.2     1  ZINC000942890482   -0.5400
     21 C21        -9.4086   -0.4214   60.0732 C.3     1  ZINC000942890482   -0.1300
     22 C22        -9.5814   -0.9370   61.5033 C.3     1  ZINC000942890482   -0.0700
     23 C23       -10.5220   -0.0060   62.2710 C.3     1  ZINC000942890482   -0.1600
     24 C24       -10.0360    0.5364   63.6166 C.3     1  ZINC000942890482   -0.1800
     25 C25       -10.1118    1.4623   62.4008 C.3     1  ZINC000942890482   -0.1800
     26 C26       -12.3700   -1.5668   57.8482 C.3     1  ZINC000942890482    0.0900
     27 H27       -14.1579   -5.6639   55.5956 H       1  ZINC000942890482    0.0600
     28 H28       -12.7035   -5.7994   56.6128 H       1  ZINC000942890482    0.0600
     29 H29       -14.2942   -6.2546   57.2692 H       1  ZINC000942890482    0.0700
     30 H30       -15.0412   -3.8967   57.0940 H       1  ZINC000942890482    0.0900
     31 H31       -13.5869   -4.0321   58.1112 H       1  ZINC000942890482    0.0900
     32 H32       -13.9932   -0.2886   54.8570 H       1  ZINC000942890482    0.1400
     33 H33       -12.8015    1.2592   53.3640 H       1  ZINC000942890482    0.1400
     34 H34       -10.7113   -2.0238   51.6031 H       1  ZINC000942890482    0.1400
     35 H35       -10.9494   -4.2476   53.6889 H       1  ZINC000942890482    0.0900
     36 H36       -12.6814   -4.5579   53.4200 H       1  ZINC000942890482    0.0700
     37 H37       -11.6020   -4.2753   52.0331 H       1  ZINC000942890482    0.0700
     38 H38       -11.6320   -4.3001   57.8874 H       1  ZINC000942890482    0.1000
     39 H39       -10.4198   -3.9804   56.6039 H       1  ZINC000942890482    0.0900
     40 H40       -10.0997   -3.1797   59.2493 H       1  ZINC000942890482    0.0700
     41 H41        -9.3373   -2.3478   57.8653 H       1  ZINC000942890482    0.0700
     42 H42        -8.7214   -1.0723   59.5328 H       1  ZINC000942890482    0.0900
     43 H43        -9.0062    0.5913   60.0982 H       1  ZINC000942890482    0.0900
     44 H44       -10.0044   -1.9413   61.4789 H       1  ZINC000942890482    0.0700
     45 H45        -8.6114   -0.9633   61.9997 H       1  ZINC000942890482    0.0700
     46 H46       -11.5851   -0.2247   62.1705 H       1  ZINC000942890482    0.1000
     47 H47       -10.7793    0.6747   64.4016 H       1  ZINC000942890482    0.0900
     48 H48        -9.0461    0.2301   63.9548 H       1  ZINC000942890482    0.0900
     49 H49        -9.1719    1.7650   61.9393 H       1  ZINC000942890482    0.0900
     50 H50       -10.9051    2.2096   62.3860 H       1  ZINC000942890482    0.0900
     51 H51       -12.6819   -0.5934   57.4699 H       1  ZINC000942890482    0.0800
     52 H52       -13.1432   -1.9914   58.4885 H       1  ZINC000942890482    0.0900
@<TRIPOS>BOND
     1     1     2    1
     2     1    27    1
     3     1    28    1
     4     1    29    1
     5     2     3    1
     6     2    30    1
     7     2    31    1
     8     3     4   am
     9     3    14    1
    10     4     5    2
    11     4     6    1
    12     6    12   ar
    13     6     7   ar
    14     7     8   ar
    15     7    32    1
    16     8     9   ar
    17     8    33    1
    18     9    10    1
    19     9    11   ar
    20    11    12   ar
    21    11    34    1
    22    12    13    1
    23    13    35    1
    24    13    36    1
    25    13    37    1
    26    14    15    1
    27    14    26    1
    28    14    16    1
    29    16    17    1
    30    16    38    1
    31    16    39    1
    32    17    18    1
    33    17    40    1
    34    17    41    1
    35    18    19   am
    36    18    26    1
    37    19    20    2
    38    19    21    1
    39    21    22    1
    40    21    42    1
    41    21    43    1
    42    22    23    1
    43    22    44    1
    44    22    45    1
    45    23    25    1
    46    23    24    1
    47    23    46    1
    48    24    25    1
    49    24    47    1
    50    24    48    1
    51    25    49    1
    52    25    50    1
    53    26    51    1
    54    26    52    1
@<TRIPOS>SUBSTRUCTURE
     1 ZINC000942890482        1 TEMP              0 ****  ****    0 ROOT


##########                                Name:    ZINC000338927927
##########                DOCK_Rotatable_Bonds:                   9
##########                         Heavy_Atoms:                  23
##########                    Molecular_Weight:             336.286
##########                DOCK_Rotatable_Bonds:                   9
##########                       Formal_Charge:         -0.00999999
##########                     HBond_Acceptors:                   9
##########                        HBond_Donors:                   2
##########                         Heavy_Atoms:                  23
##########                          Grid_Score:          -26.739864
##########                     Grid_vdw_energy:          -26.918110
##########                      Grid_es_energy:            0.178246
##########           Internal_energy_repulsive:           13.383104

@<TRIPOS>MOLECULE
ZINC000338927927
 39 39 1 0 0
SMALL
USER_CHARGES


@<TRIPOS>ATOM
      1 C1        -11.8941   -0.7963   61.3494 C.3     1  <0>        -0.1600
      2 C2        -10.5427   -1.3896   60.9462 C.3     1  <0>        -0.1100
      3 C3        -10.0903   -0.7734   59.6209 C.3     1  <0>        -0.1000
      4 H4        -10.2539    0.3039   59.6465 H       1  <0>         0.1400
      5 C5        -10.8840   -1.3754   58.4901 C.2     1  <0>         0.5200
      6 O6        -11.8457   -0.7866   58.0435 O.2     1  <0>        -0.4700
      7 N7        -10.5252   -2.5681   57.9751 N.am    1  <0>        -0.6700
      8 C8        -11.2621   -3.1270   56.9252 C.ar    1  <0>         0.2200
      9 C9        -12.1376   -4.1762   57.1723 C.ar    1  <0>        -0.2300
     10 C10       -12.8669   -4.7297   56.1341 C.ar    1  <0>         0.1700
     11 F11       -13.7180   -5.7504   56.3769 F       1  <0>        -0.1300
     12 C12       -12.7258   -4.2386   54.8484 C.ar    1  <0>        -0.2500
     13 C13       -11.8511   -3.1889   54.5968 C.ar    1  <0>         0.2600
     14 N14       -11.7086   -2.6937   53.2986 N.pl3   1  <0>        -0.7400
     15 C15       -10.4011   -2.7331   52.6389 C.3     1  <0>         0.0800
     16 C16        -9.9607   -1.3092   52.2942 C.3     1  <0>         0.4500
     17 F17        -8.7684   -1.3538   51.5636 F       1  <0>        -0.1800
     18 F18       -10.9530   -0.6861   51.5297 F       1  <0>        -0.1700
     19 F19        -9.7577   -0.5853   53.4741 F       1  <0>        -0.1800
     20 C20       -11.1228   -2.6293   55.6373 C.ar    1  <0>        -0.2000
     21 C21        -8.6246   -1.0541   59.4109 C.2     1  <0>         0.4600
     22 O22        -8.1158   -2.0236   59.9217 O.2     1  <0>        -0.4600
     23 O23        -7.8843   -0.2268   58.6564 O.3     1  <0>        -0.3500
     24 C24        -8.5974    0.7646   57.8711 C.3     1  <0>         0.0300
     25 H25       -12.6316   -1.0141   60.5770 H       1  <0>         0.0600
     26 H26       -12.2164   -1.2353   62.2937 H       1  <0>         0.0600
     27 H27       -11.7970    0.2832   61.4651 H       1  <0>         0.0800
     28 H28        -9.8053   -1.1719   61.7187 H       1  <0>         0.0800
     29 H29       -10.6399   -2.4691   60.8306 H       1  <0>         0.0800
     30 H30        -9.7560   -3.0390   58.3322 H       1  <0>         0.4200
     31 H31       -12.2491   -4.5610   58.1752 H       1  <0>         0.1400
     32 H32       -13.2958   -4.6717   54.0397 H       1  <0>         0.1400
     33 H33       -12.4753   -2.3237   52.8338 H       1  <0>         0.4100
     34 H34        -9.6703   -3.1877   53.3077 H       1  <0>         0.1100
     35 H35       -10.4731   -3.3226   51.7248 H       1  <0>         0.1100
     36 H36       -10.4424   -1.8133   55.4435 H       1  <0>         0.1500
     37 H37        -7.8825    1.3660   57.3093 H       1  <0>         0.1000
     38 H38        -9.2729    0.2624   57.1786 H       1  <0>         0.0600
     39 H39        -9.1720    1.4099   58.5356 H       1  <0>         0.0600
@<TRIPOS>BOND
     1     1     2    1
     2     1    25    1
     3     1    26    1
     4     1    27    1
     5     2     3    1
     6     2    28    1
     7     2    29    1
     8     3     4    1
     9     3     5    1
    10     3    21    1
    11     5     6    2
    12     5     7   am
    13     7     8    1
    14     7    30    1
    15     8    20   ar
    16     8     9   ar
    17     9    10   ar
    18     9    31    1
    19    10    11    1
    20    10    12   ar
    21    12    13   ar
    22    12    32    1
    23    13    14    1
    24    13    20   ar
    25    14    15    1
    26    14    33    1
    27    15    16    1
    28    15    34    1
    29    15    35    1
    30    16    17    1
    31    16    18    1
    32    16    19    1
    33    20    36    1
    34    21    22    2
    35    21    23    1
    36    23    24    1
    37    24    37    1
    38    24    38    1
    39    24    39    1
@<TRIPOS>SUBSTRUCTURE
     1 <0>         1 TEMP              0 ****  ****    0 ROOT


##########                                Name:    ZINC000002873519
##########                DOCK_Rotatable_Bonds:                   5
##########                         Heavy_Atoms:                  25
##########                    Molecular_Weight:             375.207
##########                DOCK_Rotatable_Bonds:                   5
##########                       Formal_Charge:               -0.02
##########                     HBond_Acceptors:                   6
##########                        HBond_Donors:                   0
##########                         Heavy_Atoms:                  25
##########                          Grid_Score:          -26.680071
##########                     Grid_vdw_energy:          -25.682604
##########                      Grid_es_energy:           -0.997467
##########           Internal_energy_repulsive:            4.453144

@<TRIPOS>MOLECULE
ZINC000002873519
 37 39 1 0 0
SMALL
USER_CHARGES


@<TRIPOS>ATOM
      1 C1         -0.7805    3.2433   57.1639 C.3     1  ZINC000002873519   -0.1500
      2 C2         -0.8899    3.8184   55.7751 C.2     1  ZINC000002873519    0.4500
      3 O3          0.0621    4.3657   55.2711 O.2     1  ZINC000002873519   -0.4800
      4 O4         -2.0454    3.7224   55.0978 O.3     1  ZINC000002873519   -0.2900
      5 C5         -2.5346    4.8633   54.5489 C.ar    1  ZINC000002873519    0.1200
      6 C6         -3.0556    5.8578   55.3597 C.ar    1  ZINC000002873519   -0.1100
      7 C7         -3.5532    7.0197   54.8007 C.ar    1  ZINC000002873519   -0.0800
      8 C8         -3.5364    7.2021   53.4259 C.ar    1  ZINC000002873519   -0.0400
      9 Cl9        -4.1652    8.6683   52.7414 Cl      1  ZINC000002873519   -0.0500
     10 C10        -3.0225    6.2252   52.6006 C.ar    1  ZINC000002873519   -0.0800
     11 C11        -2.5095    5.0439   53.1538 C.ar    1  ZINC000002873519   -0.0700
     12 C12        -1.9614    4.0010   52.2856 C.2     1  ZINC000002873519    0.0400
     13 C13        -2.7425    2.9198   51.9271 C.2     1  ZINC000002873519   -0.1900
     14 C14        -4.1387    2.6471   52.3098 C.2     1  ZINC000002873519   -0.2000
     15 C15        -4.4753    1.4794   51.7226 C.2     1  ZINC000002873519    0.1200
     16 C16        -5.7980    0.8352   51.8466 C.ar    1  ZINC000002873519   -0.0400
     17 C17        -6.8996    1.5739   52.2844 C.ar    1  ZINC000002873519   -0.0800
     18 C18        -8.1323    0.9663   52.3982 C.ar    1  ZINC000002873519   -0.1100
     19 C19        -8.2792   -0.3735   52.0799 C.ar    1  ZINC000002873519   -0.0200
     20 Cl20       -9.8344   -1.1310   52.2258 Cl      1  ZINC000002873519   -0.0600
     21 C21        -7.1909   -1.1115   51.6452 C.ar    1  ZINC000002873519   -0.1100
     22 C22        -5.9541   -0.5142   51.5211 C.ar    1  ZINC000002873519   -0.0800
     23 O23        -3.4486    0.9772   51.0077 O.3     1  ZINC000002873519   -0.2600
     24 C24        -2.3703    1.7791   51.0687 C.2     1  ZINC000002873519    0.5200
     25 O25        -1.2955    1.5952   50.5287 O.2     1  ZINC000002873519   -0.4200
     26 H26        -1.0606    4.0023   57.8944 H       1  ZINC000002873519    0.1100
     27 H27        -1.4478    2.3865   57.2559 H       1  ZINC000002873519    0.1000
     28 H28         0.2462    2.9254   57.3456 H       1  ZINC000002873519    0.1100
     29 H29        -3.0733    5.7249   56.4314 H       1  ZINC000002873519    0.1500
     30 H30        -3.9583    7.7910   55.4389 H       1  ZINC000002873519    0.1500
     31 H31        -3.0118    6.3711   51.5306 H       1  ZINC000002873519    0.1500
     32 H32        -0.9461    4.0768   51.9252 H       1  ZINC000002873519    0.1500
     33 H33        -4.7687    3.2603   52.9371 H       1  ZINC000002873519    0.1700
     34 H34        -6.7861    2.6187   52.5336 H       1  ZINC000002873519    0.1400
     35 H35        -8.9849    1.5365   52.7366 H       1  ZINC000002873519    0.1400
     36 H36        -7.3120   -2.1561   51.3988 H       1  ZINC000002873519    0.1400
     37 H37        -5.1062   -1.0908   51.1821 H       1  ZINC000002873519    0.1400
@<TRIPOS>BOND
     1     1     2    1
     2     1    26    1
     3     1    27    1
     4     1    28    1
     5     2     3    2
     6     2     4    1
     7     4     5    1
     8     5    11   ar
     9     5     6   ar
    10     6     7   ar
    11     6    29    1
    12     7     8   ar
    13     7    30    1
    14     8     9    1
    15     8    10   ar
    16    10    11   ar
    17    10    31    1
    18    11    12    1
    19    12    13    2
    20    12    32    1
    21    13    24    1
    22    13    14    1
    23    14    15    2
    24    14    33    1
    25    15    16    1
    26    15    23    1
    27    16    22   ar
    28    16    17   ar
    29    17    18   ar
    30    17    34    1
    31    18    19   ar
    32    18    35    1
    33    19    20    1
    34    19    21   ar
    35    21    22   ar
    36    21    36    1
    37    22    37    1
    38    23    24    1
    39    24    25    2
@<TRIPOS>SUBSTRUCTURE
     1 ZINC000002873519        1 TEMP              0 ****  ****    0 ROOT


##########                                Name:    ZINC000506388363
##########                DOCK_Rotatable_Bonds:                   5
##########                         Heavy_Atoms:                  29
##########                    Molecular_Weight:             416.858
##########                DOCK_Rotatable_Bonds:                   5
##########                       Formal_Charge:         7.07805e-07
##########                     HBond_Acceptors:                   8
##########                        HBond_Donors:                   1
##########                         Heavy_Atoms:                  29
##########                          Grid_Score:          -26.663633
##########                     Grid_vdw_energy:          -26.757092
##########                      Grid_es_energy:            0.093458
##########           Internal_energy_repulsive:           17.232281

@<TRIPOS>MOLECULE
ZINC000506388363
 48 51 1 0 0
SMALL
USER_CHARGES


@<TRIPOS>ATOM
      1 O1        -11.8802    0.3390   52.6780 O.2     1  ZINC000506388363   -0.5300
      2 C2        -11.0517    0.2972   53.5665 C.2     1  ZINC000506388363    0.5600
      3 C3         -9.6137    0.4103   53.2421 C.ar    1  ZINC000506388363   -0.1200
      4 C4         -8.9250    1.5934   53.5137 C.ar    1  ZINC000506388363   -0.0900
      5 C5         -7.5829    1.6929   53.2093 C.ar    1  ZINC000506388363   -0.1100
      6 C6         -6.9194    0.6235   52.6354 C.ar    1  ZINC000506388363   -0.0900
      7 C7         -7.5962   -0.5535   52.3631 C.ar    1  ZINC000506388363   -0.0400
      8 Cl8        -6.7546   -1.8903   51.6432 Cl      1  ZINC000506388363   -0.0600
      9 C9         -8.9379   -0.6678   52.6683 C.ar    1  ZINC000506388363   -0.0600
     10 N10       -11.4444    0.1533   54.8477 N.am    1  ZINC000506388363   -0.6100
     11 C11       -12.8693    0.0329   55.1916 C.3     1  ZINC000506388363    0.1000
     12 C12       -13.0527   -1.2008   56.0819 C.3     1  ZINC000506388363    0.0400
     13 N13       -12.1418   -1.1111   57.2309 N.3     1  ZINC000506388363   -0.5300
     14 C14       -12.4061   -2.1856   58.1972 C.3     1  ZINC000506388363    0.1200
     15 C15       -13.0120   -3.3659   57.4825 C.2     1  ZINC000506388363   -0.2100
     16 C16       -12.3352   -4.3203   56.8073 C.2     1  ZINC000506388363    0.0600
     17 N17       -13.2342   -5.1982   56.3130 N.pl3   1  ZINC000506388363   -0.4700
     18 N18       -14.5134   -4.7740   56.6947 N.2     1  ZINC000506388363   -0.2700
     19 C19       -14.3844   -3.6734   57.4049 C.2     1  ZINC000506388363    0.1300
     20 C20       -15.4903   -2.8891   58.0082 C.ar    1  ZINC000506388363   -0.0700
     21 C21       -15.6016   -2.7874   59.3951 C.ar    1  ZINC000506388363    0.1500
     22 F22       -14.7020   -3.4026   60.1934 F       1  ZINC000506388363   -0.1200
     23 C23       -16.6344   -2.0551   59.9508 C.ar    1  ZINC000506388363   -0.1600
     24 C24       -17.5559   -1.4244   59.1351 C.ar    1  ZINC000506388363   -0.0500
     25 C25       -17.4512   -1.5213   57.7595 C.ar    1  ZINC000506388363   -0.1600
     26 C26       -16.4199   -2.2456   57.1909 C.ar    1  ZINC000506388363    0.1600
     27 F27       -16.3190   -2.3395   55.8470 F       1  ZINC000506388363   -0.1200
     28 C28       -10.7375   -1.1242   56.8000 C.3     1  ZINC000506388363    0.0400
     29 C29       -10.4589    0.1063   55.9385 C.3     1  ZINC000506388363    0.1200
     30 H30        -9.4419    2.4296   53.9611 H       1  ZINC000506388363    0.1400
     31 H31        -7.0494    2.6082   53.4192 H       1  ZINC000506388363    0.1400
     32 H32        -5.8690    0.7071   52.3984 H       1  ZINC000506388363    0.1400
     33 H33        -9.4650   -1.5861   52.4559 H       1  ZINC000506388363    0.1400
     34 H34       -13.1927    0.9240   55.7296 H       1  ZINC000506388363    0.0800
     35 H35       -13.4573   -0.0820   54.2810 H       1  ZINC000506388363    0.1000
     36 H36       -14.0825   -1.2435   56.4366 H       1  ZINC000506388363    0.0900
     37 H37       -12.8274   -2.0999   55.5085 H       1  ZINC000506388363    0.0400
     38 H38       -11.4713   -2.4875   58.6694 H       1  ZINC000506388363    0.1000
     39 H39       -13.0987   -1.8272   58.9586 H       1  ZINC000506388363    0.0400
     40 H40       -11.2634   -4.3719   56.6842 H       1  ZINC000506388363    0.1800
     41 H41       -13.0297   -5.9858   55.7849 H       1  ZINC000506388363    0.4400
     42 H42       -16.7219   -1.9758   61.0244 H       1  ZINC000506388363    0.1500
     43 H43       -18.3609   -0.8539   59.5741 H       1  ZINC000506388363    0.1500
     44 H44       -18.1743   -1.0266   57.1279 H       1  ZINC000506388363    0.1500
     45 H45       -10.0883   -1.1116   57.6755 H       1  ZINC000506388363    0.0900
     46 H46       -10.5445   -2.0245   56.2166 H       1  ZINC000506388363    0.0400
     47 H47        -9.4532    0.0424   55.5230 H       1  ZINC000506388363    0.1000
     48 H48       -10.5506    1.0069   56.5458 H       1  ZINC000506388363    0.0800
@<TRIPOS>BOND
     1     1     2    2
     2     2     3    1
     3     2    10   am
     4     3     9   ar
     5     3     4   ar
     6     4     5   ar
     7     4    30    1
     8     5     6   ar
     9     5    31    1
    10     6     7   ar
    11     6    32    1
    12     7     8    1
    13     7     9   ar
    14     9    33    1
    15    10    29    1
    16    10    11    1
    17    11    12    1
    18    11    34    1
    19    11    35    1
    20    12    13    1
    21    12    36    1
    22    12    37    1
    23    13    14    1
    24    13    28    1
    25    14    15    1
    26    14    38    1
    27    14    39    1
    28    15    19    1
    29    15    16    2
    30    16    17    1
    31    16    40    1
    32    17    18    1
    33    17    41    1
    34    18    19    2
    35    19    20    1
    36    20    26   ar
    37    20    21   ar
    38    21    22    1
    39    21    23   ar
    40    23    24   ar
    41    23    42    1
    42    24    25   ar
    43    24    43    1
    44    25    26   ar
    45    25    44    1
    46    26    27    1
    47    28    29    1
    48    28    45    1
    49    28    46    1
    50    29    47    1
    51    29    48    1
@<TRIPOS>SUBSTRUCTURE
     1 ZINC000506388363        1 TEMP              0 ****  ****    0 ROOT


##########                                Name:    ZINC000518937710
##########                DOCK_Rotatable_Bonds:                   6
##########                         Heavy_Atoms:                  25
##########                    Molecular_Weight:             397.421
##########                DOCK_Rotatable_Bonds:                   6
##########                       Formal_Charge:          -0.0199997
##########                     HBond_Acceptors:                  11
##########                        HBond_Donors:                   0
##########                         Heavy_Atoms:                  25
##########                          Grid_Score:          -26.633820
##########                     Grid_vdw_energy:          -26.576330
##########                      Grid_es_energy:           -0.057489
##########           Internal_energy_repulsive:           19.131674

@<TRIPOS>MOLECULE
ZINC000518937710
 42 44 1 0 0
SMALL
USER_CHARGES


@<TRIPOS>ATOM
      1 C1        -12.1853    0.3149   53.9587 C.3     1  ZINC000518937710   -0.1900
      2 C2        -12.3598   -1.0638   53.3190 C.3     1  ZINC000518937710    0.1700
      3 H3        -13.1759   -1.5923   53.8116 H       1  ZINC000518937710    0.1100
      4 C4        -12.6825   -0.8992   51.8325 C.3     1  ZINC000518937710   -0.6600
      5 S5        -14.4368   -1.2649   51.5504 S.o2    1  ZINC000518937710    2.4000
      6 C6        -15.2430   -0.2092   52.7856 C.3     1  ZINC000518937710   -0.6600
      7 O7        -14.7936   -0.8005   50.2556 O.2     1  ZINC000518937710   -0.9200
      8 O8        -14.6764   -2.6237   51.8905 O.2     1  ZINC000518937710   -0.9300
      9 N9        -11.1209   -1.8316   53.4675 N.am    1  ZINC000518937710   -0.9600
     10 C10        -9.8260   -1.1480   53.4247 C.3     1  ZINC000518937710    0.0800
     11 C11        -8.7595   -1.7132   52.4844 C.3     1  ZINC000518937710   -0.1800
     12 C12        -9.4644   -0.3995   52.1403 C.3     1  ZINC000518937710   -0.1800
     13 S13       -11.1845   -3.4722   53.6837 S.o2    1  ZINC000518937710    2.6900
     14 O14       -11.9682   -3.9876   52.6162 O.2     1  ZINC000518937710   -0.9400
     15 O15        -9.8530   -3.8945   53.9445 O.2     1  ZINC000518937710   -0.9400
     16 C16       -12.0988   -3.7687   55.1605 C.ar    1  ZINC000518937710   -0.6400
     17 C17       -13.2949   -4.4594   55.1056 C.ar    1  ZINC000518937710   -0.0300
     18 C18       -14.0150   -4.6939   56.2623 C.ar    1  ZINC000518937710   -0.1300
     19 C19       -13.5415   -4.2391   57.4788 C.ar    1  ZINC000518937710   -0.0300
     20 C20       -12.3435   -3.5461   57.5414 C.ar    1  ZINC000518937710    0.0200
     21 C21       -11.6156   -3.3144   56.3769 C.ar    1  ZINC000518937710    0.1900
     22 O22       -10.4859   -2.6194   56.6995 O.3     1  ZINC000518937710   -0.2800
     23 C23       -10.7310   -2.0741   58.0094 C.3     1  ZINC000518937710    0.5700
     24 F24        -9.5484   -2.0375   58.7559 F       1  ZINC000518937710   -0.1200
     25 F25       -11.2894   -0.7949   57.9128 F       1  ZINC000518937710   -0.1400
     26 O26       -11.6676   -3.0003   58.5943 O.3     1  ZINC000518937710   -0.2900
     27 H27       -11.3457    0.8290   53.4907 H       1  ZINC000518937710    0.1000
     28 H28       -13.0942    0.8993   53.8162 H       1  ZINC000518937710    0.0800
     29 H29       -11.9914    0.1988   55.0250 H       1  ZINC000518937710    0.0700
     30 H30       -12.4712    0.1253   51.5261 H       1  ZINC000518937710    0.1600
     31 H31       -12.0698   -1.5866   51.2493 H       1  ZINC000518937710    0.1400
     32 H32       -15.0593    0.8378   52.5442 H       1  ZINC000518937710    0.1300
     33 H33       -16.3163   -0.3999   52.7817 H       1  ZINC000518937710    0.1300
     34 H34       -14.8382   -0.4309   53.7730 H       1  ZINC000518937710    0.1300
     35 H35        -9.4890   -0.7196   54.3687 H       1  ZINC000518937710    0.1500
     36 H36        -7.7207   -1.6568   52.8096 H       1  ZINC000518937710    0.1100
     37 H37        -9.0215   -2.5936   51.8975 H       1  ZINC000518937710    0.1000
     38 H38       -10.1900   -0.4156   51.3271 H       1  ZINC000518937710    0.1000
     39 H39        -8.8892    0.5212   52.2392 H       1  ZINC000518937710    0.1000
     40 H40       -13.6680   -4.8163   54.1570 H       1  ZINC000518937710    0.1600
     41 H41       -14.9494   -5.2332   56.2153 H       1  ZINC000518937710    0.1600
     42 H42       -14.1061   -4.4237   58.3808 H       1  ZINC000518937710    0.1500
@<TRIPOS>BOND
     1     1     2    1
     2     1    27    1
     3     1    28    1
     4     1    29    1
     5     2     3    1
     6     2     4    1
     7     2     9    1
     8     4     5    1
     9     4    30    1
    10     4    31    1
    11     5     6    1
    12     5     7    2
    13     5     8    2
    14     6    32    1
    15     6    33    1
    16     6    34    1
    17     9    10    1
    18     9    13   am
    19    10    12    1
    20    10    11    1
    21    10    35    1
    22    11    12    1
    23    11    36    1
    24    11    37    1
    25    12    38    1
    26    12    39    1
    27    13    14    2
    28    13    15    2
    29    13    16    1
    30    16    21   ar
    31    16    17   ar
    32    17    18   ar
    33    17    40    1
    34    18    19   ar
    35    18    41    1
    36    19    20   ar
    37    19    42    1
    38    20    26    1
    39    20    21   ar
    40    21    22    1
    41    22    23    1
    42    23    24    1
    43    23    25    1
    44    23    26    1
@<TRIPOS>SUBSTRUCTURE
     1 ZINC000518937710        1 TEMP              0 ****  ****    0 ROOT


##########                                Name:    ZINC000274267583
##########                DOCK_Rotatable_Bonds:                   5
##########                         Heavy_Atoms:                  24
##########                    Molecular_Weight:             349.407
##########                DOCK_Rotatable_Bonds:                   5
##########                       Formal_Charge:           0.0300001
##########                     HBond_Acceptors:                   7
##########                        HBond_Donors:                   1
##########                         Heavy_Atoms:                  24
##########                          Grid_Score:          -26.616491
##########                     Grid_vdw_energy:          -26.950869
##########                      Grid_es_energy:            0.334377
##########           Internal_energy_repulsive:           10.612714

@<TRIPOS>MOLECULE
ZINC000274267583
 43 45 1 0 0
SMALL
USER_CHARGES


@<TRIPOS>ATOM
      1 C1         -8.2270    1.6602   65.1427 C.3     1  ZINC000274267583    0.0200
      2 O2         -8.5282    2.4026   63.9594 O.3     1  ZINC000274267583   -0.3100
      3 C3         -8.6778    1.6951   62.8087 C.ar    1  ZINC000274267583    0.1900
      4 C4         -8.9732    2.3517   61.6228 C.ar    1  ZINC000274267583   -0.2300
      5 C5         -9.1243    1.6303   60.4544 C.ar    1  ZINC000274267583    0.0300
      6 C6         -8.9819    0.2551   60.4662 C.ar    1  ZINC000274267583   -0.7200
      7 S7         -9.1759   -0.6620   58.9744 S.o2    1  ZINC000274267583    2.7000
      8 O8         -8.7869    0.2042   57.9172 O.2     1  ZINC000274267583   -0.9500
      9 O9         -8.5750   -1.9295   59.2015 O.2     1  ZINC000274267583   -0.9500
     10 N10       -10.7963   -0.9413   58.7777 N.am    1  ZINC000274267583   -1.1100
     11 C11       -11.5392   -1.6903   59.7943 C.3     1  ZINC000274267583    0.2100
     12 H12       -10.8428   -2.2759   60.3943 H       1  ZINC000274267583    0.1000
     13 C13       -12.2925   -0.7117   60.6986 C.3     1  ZINC000274267583   -0.1800
     14 C14       -13.2830   -1.5112   61.5547 C.3     1  ZINC000274267583    0.0600
     15 O15       -14.2554   -2.0979   60.6887 O.3     1  ZINC000274267583   -0.3100
     16 C16       -13.8082   -2.7750   59.5980 C.ar    1  ZINC000274267583    0.1100
     17 C17       -14.6808   -3.6475   58.9564 C.ar    1  ZINC000274267583   -0.1100
     18 C18       -14.2684   -4.3507   57.8430 C.ar    1  ZINC000274267583   -0.1600
     19 C19       -12.9786   -4.1870   57.3607 C.ar    1  ZINC000274267583    0.0900
     20 O20       -12.5695   -4.8761   56.2621 O.3     1  ZINC000274267583   -0.3200
     21 C21       -12.9062   -4.3243   54.9876 C.3     1  ZINC000274267583    0.0300
     22 C22       -12.1075   -3.3197   58.0003 C.ar    1  ZINC000274267583   -0.1000
     23 C23       -12.5203   -2.6149   59.1191 C.ar    1  ZINC000274267583   -0.1400
     24 C24        -8.6871   -0.4016   61.6467 C.ar    1  ZINC000274267583    0.0200
     25 C25        -8.5298    0.3157   62.8169 C.ar    1  ZINC000274267583   -0.1700
     26 H26        -9.0285    0.9481   65.3388 H       1  ZINC000274267583    0.0600
     27 H27        -7.2888    1.1225   65.0054 H       1  ZINC000274267583    0.0600
     28 H28        -8.1337    2.3438   65.9866 H       1  ZINC000274267583    0.1100
     29 H29        -9.0853    3.4258   61.6132 H       1  ZINC000274267583    0.1400
     30 H30        -9.3543    2.1411   59.5310 H       1  ZINC000274267583    0.1400
     31 H31       -11.2536   -0.6091   57.9894 H       1  ZINC000274267583    0.4200
     32 H32       -11.5861   -0.1902   61.3446 H       1  ZINC000274267583    0.1000
     33 H33       -12.8344    0.0103   60.0877 H       1  ZINC000274267583    0.0900
     34 H34       -12.7519   -2.2950   62.0949 H       1  ZINC000274267583    0.0700
     35 H35       -13.7762   -0.8458   62.2633 H       1  ZINC000274267583    0.1200
     36 H36       -15.6854   -3.7755   59.3315 H       1  ZINC000274267583    0.1400
     37 H37       -14.9490   -5.0277   57.3482 H       1  ZINC000274267583    0.1400
     38 H38       -13.9900   -4.2487   54.8991 H       1  ZINC000274267583    0.0600
     39 H39       -12.4639   -3.3325   54.8928 H       1  ZINC000274267583    0.0600
     40 H40       -12.5214   -4.9706   54.1987 H       1  ZINC000274267583    0.1000
     41 H41       -11.1029   -3.1925   57.6248 H       1  ZINC000274267583    0.1300
     42 H42        -8.5760   -1.4758   61.6534 H       1  ZINC000274267583    0.1500
     43 H43        -8.2995   -0.1976   63.7387 H       1  ZINC000274267583    0.1400
@<TRIPOS>BOND
     1     1     2    1
     2     1    26    1
     3     1    27    1
     4     1    28    1
     5     2     3    1
     6     3    25   ar
     7     3     4   ar
     8     4     5   ar
     9     4    29    1
    10     5     6   ar
    11     5    30    1
    12     6     7    1
    13     6    24   ar
    14     7     8    2
    15     7     9    2
    16     7    10   am
    17    10    11    1
    18    10    31    1
    19    11    12    1
    20    11    23    1
    21    11    13    1
    22    13    14    1
    23    13    32    1
    24    13    33    1
    25    14    15    1
    26    14    34    1
    27    14    35    1
    28    15    16    1
    29    16    23   ar
    30    16    17   ar
    31    17    18   ar
    32    17    36    1
    33    18    19   ar
    34    18    37    1
    35    19    20    1
    36    19    22   ar
    37    20    21    1
    38    21    38    1
    39    21    39    1
    40    21    40    1
    41    22    23   ar
    42    22    41    1
    43    24    25   ar
    44    24    42    1
    45    25    43    1
@<TRIPOS>SUBSTRUCTURE
     1 ZINC000274267583        1 TEMP              0 ****  ****    0 ROOT


##########                                Name:    ZINC000742270208
##########                DOCK_Rotatable_Bonds:                   5
##########                         Heavy_Atoms:                  25
##########                    Molecular_Weight:             376.328
##########                DOCK_Rotatable_Bonds:                   5
##########                       Formal_Charge:                0.02
##########                     HBond_Acceptors:                   9
##########                        HBond_Donors:                   0
##########                         Heavy_Atoms:                  25
##########                          Grid_Score:          -26.606493
##########                     Grid_vdw_energy:          -26.085436
##########                      Grid_es_energy:           -0.521057
##########           Internal_energy_repulsive:           13.848394

@<TRIPOS>MOLECULE
ZINC000742270208
 37 38 1 0 0
SMALL
USER_CHARGES


@<TRIPOS>ATOM
      1 C1         -3.0264    3.2314   53.7060 C.3     1  ZINC000742270208   -0.1400
      2 C2         -3.4267    3.2515   52.2293 C.3     1  ZINC000742270208   -0.1400
      3 C3         -2.2153    3.6362   51.3776 C.3     1  ZINC000742270208   -0.1400
      4 C4         -3.9133    1.8845   51.8222 C.2     1  ZINC000742270208    0.4000
      5 O5         -3.1576    1.1101   51.2749 O.2     1  ZINC000742270208   -0.4300
      6 C6         -5.3056    1.4894   52.0890 C.ar    1  ZINC000742270208   -0.1000
      7 C7         -5.7194    0.1737   51.8582 C.ar    1  ZINC000742270208   -0.0900
      8 C8         -7.0257   -0.1887   52.1106 C.ar    1  ZINC000742270208   -0.0200
      9 C9         -7.9264    0.7459   52.5907 C.ar    1  ZINC000742270208   -0.6800
     10 S10        -9.5934    0.2729   52.9101 S.o2    1  ZINC000742270208    2.6600
     11 O11        -9.5649   -0.5316   54.0812 O.2     1  ZINC000742270208   -0.9300
     12 O12       -10.3744    1.4546   52.7978 O.2     1  ZINC000742270208   -0.9000
     13 O13       -10.0287   -0.6397   51.7724 O.3     1  ZINC000742270208   -0.6400
     14 C14       -11.3084   -1.0874   51.8810 C.ar    1  ZINC000742270208    0.0500
     15 C15       -12.3474   -0.3680   51.3068 C.ar    1  ZINC000742270208    0.0900
     16 F16       -12.0883    0.7778   50.6395 F       1  ZINC000742270208   -0.0900
     17 C17       -13.6501   -0.8260   51.4181 C.ar    1  ZINC000742270208    0.1100
     18 F18       -14.6617   -0.1261   50.8594 F       1  ZINC000742270208   -0.1000
     19 C19       -13.9160   -2.0004   52.1010 C.ar    1  ZINC000742270208   -0.1100
     20 C20       -12.8811   -2.7192   52.6747 C.ar    1  ZINC000742270208    0.1200
     21 F21       -13.1431   -3.8651   53.3407 F       1  ZINC000742270208   -0.1000
     22 C22       -11.5765   -2.2673   52.5612 C.ar    1  ZINC000742270208    0.1200
     23 F23       -10.5669   -2.9693   53.1208 F       1  ZINC000742270208   -0.0900
     24 C24        -7.5246    2.0500   52.8218 C.ar    1  ZINC000742270208   -0.0300
     25 C25        -6.2202    2.4265   52.5802 C.ar    1  ZINC000742270208   -0.0800
     26 H26        -2.6744    4.2201   54.0004 H       1  ZINC000742270208    0.0700
     27 H27        -3.8894    2.9573   54.3126 H       1  ZINC000742270208    0.0600
     28 H28        -2.2301    2.5025   53.8566 H       1  ZINC000742270208    0.0600
     29 H29        -4.2230    3.9804   52.0786 H       1  ZINC000742270208    0.1000
     30 H30        -1.4190    2.9073   51.5283 H       1  ZINC000742270208    0.0700
     31 H31        -2.5005    3.6504   50.3257 H       1  ZINC000742270208    0.0600
     32 H32        -1.8634    4.6249   51.6721 H       1  ZINC000742270208    0.0700
     33 H33        -5.0178   -0.5566   51.4828 H       1  ZINC000742270208    0.1500
     34 H34        -7.3468   -1.2044   51.9328 H       1  ZINC000742270208    0.1500
     35 H35       -14.9321   -2.3564   52.1866 H       1  ZINC000742270208    0.1900
     36 H36        -8.2334    2.7736   53.1965 H       1  ZINC000742270208    0.1500
     37 H37        -5.9082    3.4445   52.7610 H       1  ZINC000742270208    0.1500
@<TRIPOS>BOND
     1     1     2    1
     2     1    26    1
     3     1    27    1
     4     1    28    1
     5     2     3    1
     6     2     4    1
     7     2    29    1
     8     3    30    1
     9     3    31    1
    10     3    32    1
    11     4     5    2
    12     4     6    1
    13     6    25   ar
    14     6     7   ar
    15     7     8   ar
    16     7    33    1
    17     8     9   ar
    18     8    34    1
    19     9    10    1
    20     9    24   ar
    21    10    11    2
    22    10    12    2
    23    10    13    1
    24    13    14    1
    25    14    22   ar
    26    14    15   ar
    27    15    16    1
    28    15    17   ar
    29    17    18    1
    30    17    19   ar
    31    19    20   ar
    32    19    35    1
    33    20    21    1
    34    20    22   ar
    35    22    23    1
    36    24    25   ar
    37    24    36    1
    38    25    37    1
@<TRIPOS>SUBSTRUCTURE
     1 ZINC000742270208        1 TEMP              0 ****  ****    0 ROOT


##########                                Name:    ZINC000888733009
##########                DOCK_Rotatable_Bonds:                   6
##########                         Heavy_Atoms:                  25
##########                    Molecular_Weight:             360.434
##########                DOCK_Rotatable_Bonds:                   6
##########                       Formal_Charge:        -1.02073e-06
##########                     HBond_Acceptors:                   7
##########                        HBond_Donors:                   2
##########                         Heavy_Atoms:                  25
##########                          Grid_Score:          -26.580011
##########                     Grid_vdw_energy:          -24.968798
##########                      Grid_es_energy:           -1.611214
##########           Internal_energy_repulsive:            8.031927

@<TRIPOS>MOLECULE
ZINC000888733009
 45 48 1 0 0
SMALL
USER_CHARGES


@<TRIPOS>ATOM
      1 C1          2.8357    0.0538   49.3609 C.3     1  ZINC000888733009   -0.1500
      2 C2          1.8512    1.1622   48.9824 C.3     1  ZINC000888733009    0.0700
      3 H3          2.3521    1.9269   48.3888 H       1  ZINC000888733009    0.0700
      4 C4          1.2307    1.7886   50.2543 C.3     1  ZINC000888733009   -0.1300
      5 C5         -0.2228    2.0665   49.8483 C.3     1  ZINC000888733009   -0.1100
      6 C6         -1.2918    1.5499   50.8079 C.3     1  ZINC000888733009   -0.1300
      7 C7         -2.0790    2.8326   50.4818 C.3     1  ZINC000888733009    0.1200
      8 N8         -2.7236    3.4375   51.6501 N.am    1  ZINC000888733009   -0.7100
      9 C9         -3.8985    2.9524   52.0980 C.2     1  ZINC000888733009    0.5900
     10 O10        -4.4233    2.0108   51.5328 O.2     1  ZINC000888733009   -0.5600
     11 C11        -4.5444    3.5587   53.2659 C.2     1  ZINC000888733009   -0.2400
     12 C12        -5.6644    3.0436   53.8665 C.2     1  ZINC000888733009    0.0800
     13 N13        -6.3231    1.8973   53.4534 N.am    1  ZINC000888733009   -0.6100
     14 C14        -7.6207    1.9581   53.0943 C.2     1  ZINC000888733009    0.6000
     15 O15        -8.2133    3.0205   53.1314 O.2     1  ZINC000888733009   -0.4900
     16 C16        -8.3183    0.7446   52.6589 C.2     1  ZINC000888733009   -0.0900
     17 C17        -7.7594   -0.4926   52.5093 C.2     1  ZINC000888733009   -0.1000
     18 C18        -8.7846   -1.3490   52.0784 C.2     1  ZINC000888733009   -0.2300
     19 C19        -9.9100   -0.6067   51.9850 C.2     1  ZINC000888733009    0.0100
     20 O20        -9.6264    0.6529   52.3410 O.3     1  ZINC000888733009   -0.1600
     21 S21        -6.1344    4.0074   55.1914 S.3     1  ZINC000888733009    0.3000
     22 C22        -4.8078    5.1293   54.9456 C.2     1  ZINC000888733009   -0.2800
     23 C23        -4.0649    4.7610   53.9117 C.2     1  ZINC000888733009   -0.0900
     24 C24        -0.7303    3.4807   50.1181 C.3     1  ZINC000888733009   -0.1400
     25 C25        -0.3356    1.5805   48.3972 C.3     1  ZINC000888733009    0.0700
     26 O26         0.7314    0.6124   48.2528 O.3     1  ZINC000888733009   -0.3700
     27 H27         3.2433   -0.3950   48.4551 H       1  ZINC000888733009    0.0600
     28 H28         3.6469    0.4755   49.9543 H       1  ZINC000888733009    0.0700
     29 H29         2.3182   -0.7087   49.9430 H       1  ZINC000888733009    0.0600
     30 H30         1.2686    1.0848   51.0858 H       1  ZINC000888733009    0.0800
     31 H31         1.7409    2.7165   50.5125 H       1  ZINC000888733009    0.0800
     32 H32        -1.7815    0.6376   50.4674 H       1  ZINC000888733009    0.0800
     33 H33        -0.9586    1.4923   51.8441 H       1  ZINC000888733009    0.0900
     34 H34        -2.7554    2.7254   49.6340 H       1  ZINC000888733009    0.1200
     35 H35        -2.3048    4.1871   52.1013 H       1  ZINC000888733009    0.4000
     36 H36        -5.8504    1.0508   53.4227 H       1  ZINC000888733009    0.4400
     37 H37        -6.7284   -0.7601   52.6877 H       1  ZINC000888733009    0.1700
     38 H38        -8.6915   -2.4030   51.8619 H       1  ZINC000888733009    0.1600
     39 H39       -10.8795   -0.9703   51.6781 H       1  ZINC000888733009    0.2200
     40 H40        -4.6198    5.9997   55.5566 H       1  ZINC000888733009    0.1700
     41 H41        -3.1945    5.3076   53.5800 H       1  ZINC000888733009    0.1500
     42 H42        -0.2383    3.9691   50.9592 H       1  ZINC000888733009    0.0900
     43 H43        -0.7723    4.1079   49.2275 H       1  ZINC000888733009    0.0800
     44 H44        -1.3035    1.1087   48.2282 H       1  ZINC000888733009    0.0900
     45 H45        -0.1899    2.4104   47.7057 H       1  ZINC000888733009    0.0700
@<TRIPOS>BOND
     1     1     2    1
     2     1    27    1
     3     1    28    1
     4     1    29    1
     5     2     3    1
     6     2    26    1
     7     2     4    1
     8     4     5    1
     9     4    30    1
    10     4    31    1
    11     5    24    1
    12     5     6    1
    13     5    25    1
    14     6     7    1
    15     6    32    1
    16     6    33    1
    17     7     8    1
    18     7    24    1
    19     7    34    1
    20     8     9   am
    21     8    35    1
    22     9    10    2
    23     9    11    1
    24    11    23    1
    25    11    12    2
    26    12    13    1
    27    12    21    1
    28    13    14   am
    29    13    36    1
    30    14    15    2
    31    14    16    1
    32    16    20    1
    33    16    17    2
    34    17    18    1
    35    17    37    1
    36    18    19    2
    37    18    38    1
    38    19    20    1
    39    19    39    1
    40    21    22    1
    41    22    23    2
    42    22    40    1
    43    23    41    1
    44    24    42    1
    45    24    43    1
    46    25    26    1
    47    25    44    1
    48    25    45    1
@<TRIPOS>SUBSTRUCTURE
     1 ZINC000888733009        1 TEMP              0 ****  ****    0 ROOT


##########                                Name:    ZINC000673213454
##########                DOCK_Rotatable_Bonds:                   7
##########                         Heavy_Atoms:                  26
##########                    Molecular_Weight:             360.453
##########                DOCK_Rotatable_Bonds:                   7
##########                       Formal_Charge:          -0.0100001
##########                     HBond_Acceptors:                   6
##########                        HBond_Donors:                   1
##########                         Heavy_Atoms:                  26
##########                          Grid_Score:          -26.549809
##########                     Grid_vdw_energy:          -27.537689
##########                      Grid_es_energy:            0.987881
##########           Internal_energy_repulsive:           24.757389

@<TRIPOS>MOLECULE
ZINC000673213454
 54 56 1 0 0
SMALL
USER_CHARGES


@<TRIPOS>ATOM
      1 C1        -13.5386    3.2035   50.7480 C.3     1  ZINC000673213454   -0.1700
      2 C2        -13.4308    1.8507   50.0415 C.3     1  ZINC000673213454    0.1400
      3 H3        -12.3888    1.6548   49.7888 H       1  ZINC000673213454    0.0900
      4 C4        -14.2699    1.8750   48.7623 C.3     1  ZINC000673213454   -0.1200
      5 C5        -13.7314    2.9531   47.8197 C.3     1  ZINC000673213454   -0.1300
      6 H6        -13.8278    3.9390   48.2744 H       1  ZINC000673213454    0.0800
      7 C7        -14.4751    2.9071   46.4627 C.3     1  ZINC000673213454   -0.1500
      8 C8        -13.3232    3.1434   45.4529 C.3     1  ZINC000673213454    0.0500
      9 O9        -12.2114    2.4316   46.0376 O.3     1  ZINC000673213454   -0.3800
     10 C10       -12.2609    2.6676   47.4578 C.3     1  ZINC000673213454    0.0500
     11 N11       -13.9247    0.7954   50.9295 N.am    1  ZINC000673213454   -0.6900
     12 C12       -13.4833   -0.4697   50.7833 C.2     1  ZINC000673213454    0.5100
     13 O13       -12.6757   -0.7343   49.9171 O.2     1  ZINC000673213454   -0.5100
     14 C14       -13.9886   -1.5466   51.6881 C.2     1  ZINC000673213454    0.5000
     15 O15       -14.9964   -2.1580   51.3998 O.2     1  ZINC000673213454   -0.5200
     16 N16       -13.3248   -1.8388   52.8240 N.am    1  ZINC000673213454   -0.5800
     17 C17       -13.8477   -2.9068   53.6969 C.3     1  ZINC000673213454    0.1100
     18 C18       -12.7092   -3.7862   54.2344 C.3     1  ZINC000673213454   -0.1700
     19 C19       -11.6894   -4.0223   53.1386 C.3     1  ZINC000673213454    0.0800
     20 O20       -10.6944   -3.0097   53.2143 O.3     1  ZINC000673213454   -0.3800
     21 C21       -10.8897   -1.8159   52.5497 C.3     1  ZINC000673213454    0.1500
     22 H22       -11.0581   -2.0128   51.4910 H       1  ZINC000673213454    0.0600
     23 C23        -9.6698   -0.9460   52.7111 C.ar    1  ZINC000673213454   -0.0800
     24 C24        -8.5181   -1.2321   52.0023 C.ar    1  ZINC000673213454   -0.0900
     25 C25        -7.3991   -0.4341   52.1504 C.ar    1  ZINC000673213454   -0.1300
     26 C26        -7.4320    0.6503   53.0070 C.ar    1  ZINC000673213454   -0.1200
     27 C27        -8.5840    0.9371   53.7151 C.ar    1  ZINC000673213454   -0.1300
     28 C28        -9.7044    0.1415   53.5638 C.ar    1  ZINC000673213454   -0.0900
     29 C29       -12.1193   -1.0949   53.1393 C.3     1  ZINC000673213454    0.0700
     30 H30       -14.5806    3.3995   51.0007 H       1  ZINC000673213454    0.0600
     31 H31       -12.9408    3.1862   51.6593 H       1  ZINC000673213454    0.0600
     32 H32       -13.1712    3.9888   50.0873 H       1  ZINC000673213454    0.0700
     33 H33       -14.2136    0.9029   48.2724 H       1  ZINC000673213454    0.0800
     34 H34       -15.3074    2.0963   49.0125 H       1  ZINC000673213454    0.0900
     35 H35       -14.9368    1.9323   46.3051 H       1  ZINC000673213454    0.0800
     36 H36       -15.2176    3.7025   46.3990 H       1  ZINC000673213454    0.0800
     37 H37       -13.5759    2.7265   44.4780 H       1  ZINC000673213454    0.0900
     38 H38       -13.0975    4.2066   45.3701 H       1  ZINC000673213454    0.0600
     39 H39       -11.6399    3.5264   47.7127 H       1  ZINC000673213454    0.0600
     40 H40       -11.9126    1.7841   47.9927 H       1  ZINC000673213454    0.0900
     41 H41       -14.5694    1.0070   51.6226 H       1  ZINC000673213454    0.4100
     42 H42       -14.3781   -2.4558   54.5356 H       1  ZINC000673213454    0.0800
     43 H43       -14.5407   -3.5266   53.1280 H       1  ZINC000673213454    0.0900
     44 H44       -12.2294   -3.2851   55.0750 H       1  ZINC000673213454    0.0800
     45 H45       -13.1144   -4.7424   54.5653 H       1  ZINC000673213454    0.0900
     46 H46       -11.2269   -4.9999   53.2744 H       1  ZINC000673213454    0.1000
     47 H47       -12.1808   -3.9798   52.1666 H       1  ZINC000673213454    0.0500
     48 H48        -8.4924   -2.0794   51.3331 H       1  ZINC000673213454    0.1300
     49 H49        -6.4990   -0.6581   51.5971 H       1  ZINC000673213454    0.1200
     50 H50        -6.5575    1.2734   53.1232 H       1  ZINC000673213454    0.1200
     51 H51        -8.6096    1.7841   54.3847 H       1  ZINC000673213454    0.1200
     52 H52       -10.6044    0.3656   54.1171 H       1  ZINC000673213454    0.1300
     53 H53       -12.1916   -0.0938   52.7143 H       1  ZINC000673213454    0.1200
     54 H54       -12.0135   -1.0229   54.2218 H       1  ZINC000673213454    0.0800
@<TRIPOS>BOND
     1     1     2    1
     2     1    30    1
     3     1    31    1
     4     1    32    1
     5     2     3    1
     6     2     4    1
     7     2    11    1
     8     4     5    1
     9     4    33    1
    10     4    34    1
    11     5     6    1
    12     5    10    1
    13     5     7    1
    14     7     8    1
    15     7    35    1
    16     7    36    1
    17     8     9    1
    18     8    37    1
    19     8    38    1
    20     9    10    1
    21    10    39    1
    22    10    40    1
    23    11    12   am
    24    11    41    1
    25    12    13    2
    26    12    14    1
    27    14    15    2
    28    14    16   am
    29    16    29    1
    30    16    17    1
    31    17    18    1
    32    17    42    1
    33    17    43    1
    34    18    19    1
    35    18    44    1
    36    18    45    1
    37    19    20    1
    38    19    46    1
    39    19    47    1
    40    20    21    1
    41    21    22    1
    42    21    23    1
    43    21    29    1
    44    23    28   ar
    45    23    24   ar
    46    24    25   ar
    47    24    48    1
    48    25    26   ar
    49    25    49    1
    50    26    27   ar
    51    26    50    1
    52    27    28   ar
    53    27    51    1
    54    28    52    1
    55    29    53    1
    56    29    54    1
@<TRIPOS>SUBSTRUCTURE
     1 ZINC000673213454        1 TEMP              0 ****  ****    0 ROOT


##########                                Name:    ZINC001362451754
##########                DOCK_Rotatable_Bonds:                   6
##########                         Heavy_Atoms:                  22
##########                    Molecular_Weight:             339.846
##########                DOCK_Rotatable_Bonds:                   6
##########                       Formal_Charge:         -0.00999987
##########                     HBond_Acceptors:                   7
##########                        HBond_Donors:                   1
##########                         Heavy_Atoms:                  22
##########                          Grid_Score:          -26.509769
##########                     Grid_vdw_energy:          -25.510683
##########                      Grid_es_energy:           -0.999087
##########           Internal_energy_repulsive:           16.698156

@<TRIPOS>MOLECULE
ZINC001362451754
 40 42 1 0 0
SMALL
USER_CHARGES


@<TRIPOS>ATOM
      1 C1        -12.4232   -4.3405   55.8548 C.3     1  ZINC001362451754   -0.1700
      2 C2        -11.1713   -3.4656   55.7634 C.3     1  ZINC001362451754    0.1400
      3 H3        -10.2837   -4.0926   55.6795 H       1  ZINC001362451754    0.0800
      4 C4        -11.2720   -2.5316   54.5390 C.3     1  ZINC001362451754   -0.1000
      5 H5        -10.2928   -2.3876   54.0824 H       1  ZINC001362451754    0.1000
      6 C6        -12.2709   -3.0819   53.5190 C.3     1  ZINC001362451754    0.0900
      7 O7        -12.2290   -2.2852   52.3335 O.3     1  ZINC001362451754   -0.5700
      8 C8        -11.7908   -1.2056   55.1552 C.3     1  ZINC001362451754   -0.1200
      9 C9        -11.0821   -1.2009   56.5302 C.3     1  ZINC001362451754    0.0900
     10 N10       -11.0697   -2.6121   56.9562 N.am    1  ZINC001362451754   -0.6100
     11 C11       -10.9850   -3.0478   58.2289 C.2     1  ZINC001362451754    0.6100
     12 O12       -10.9834   -4.2417   58.4645 O.2     1  ZINC001362451754   -0.5200
     13 C13       -10.8950   -2.0834   59.3291 C.2     1  ZINC001362451754   -0.2500
     14 C14       -11.6997   -2.0631   60.4333 C.2     1  ZINC001362451754   -0.0500
     15 C15       -11.3991   -1.0449   61.3066 C.2     1  ZINC001362451754   -0.1100
     16 C16       -10.3773   -0.2636   60.9375 C.2     1  ZINC001362451754   -0.2500
     17 C17        -9.8670    0.9087   61.7351 C.3     1  ZINC001362451754    0.2100
     18 N18        -9.9419    0.5965   63.1646 N.pl3   1  ZINC001362451754   -0.3700
     19 C19        -9.0345   -0.1104   63.8720 C.2     1  ZINC001362451754    0.0700
     20 C20        -9.4677   -0.1718   65.1531 C.2     1  ZINC001362451754   -0.1800
     21 Cl21       -8.6589   -0.9659   66.4680 Cl      1  ZINC001362451754   -0.0400
     22 C22       -10.6857    0.5129   65.2287 C.2     1  ZINC001362451754    0.0700
     23 N23       -10.9705    0.9736   64.0377 N.2     1  ZINC001362451754   -0.2700
     24 S24        -9.7345   -0.7669   59.4394 S.3     1  ZINC001362451754    0.2300
     25 H25       -13.3045   -3.7055   55.9448 H       1  ZINC001362451754    0.0600
     26 H26       -12.5058   -4.9515   54.9559 H       1  ZINC001362451754    0.0700
     27 H27       -12.3511   -4.9878   56.7288 H       1  ZINC001362451754    0.0700
     28 H28       -12.0102   -4.1116   53.2742 H       1  ZINC001362451754    0.0500
     29 H29       -13.2752   -3.0521   53.9416 H       1  ZINC001362451754    0.0500
     30 H30       -11.3771   -2.3048   51.8764 H       1  ZINC001362451754    0.3800
     31 H31       -11.4856   -0.3495   54.5534 H       1  ZINC001362451754    0.0900
     32 H32       -12.8738   -1.2287   55.2770 H       1  ZINC001362451754    0.0800
     33 H33       -11.6405   -0.5942   57.2432 H       1  ZINC001362451754    0.0800
     34 H34       -10.0636   -0.8264   56.4280 H       1  ZINC001362451754    0.0800
     35 H35       -12.4955   -2.7737   60.6012 H       1  ZINC001362451754    0.1600
     36 H36       -11.9453   -0.8891   62.2252 H       1  ZINC001362451754    0.1500
     37 H37        -8.8316    1.1114   61.4614 H       1  ZINC001362451754    0.1100
     38 H38       -10.4776    1.7862   61.5225 H       1  ZINC001362451754    0.1100
     39 H39        -8.1252   -0.5465   63.4856 H       1  ZINC001362451754    0.1800
     40 H40       -11.2870    0.6391   66.1170 H       1  ZINC001362451754    0.1900
@<TRIPOS>BOND
     1     1     2    1
     2     1    25    1
     3     1    26    1
     4     1    27    1
     5     2     3    1
     6     2    10    1
     7     2     4    1
     8     4     5    1
     9     4     6    1
    10     4     8    1
    11     6     7    1
    12     6    28    1
    13     6    29    1
    14     7    30    1
    15     8     9    1
    16     8    31    1
    17     8    32    1
    18     9    10    1
    19     9    33    1
    20     9    34    1
    21    10    11   am
    22    11    12    2
    23    11    13    1
    24    13    24    1
    25    13    14    2
    26    14    15    1
    27    14    35    1
    28    15    16    2
    29    15    36    1
    30    16    17    1
    31    16    24    1
    32    17    18    1
    33    17    37    1
    34    17    38    1
    35    18    23    1
    36    18    19    1
    37    19    20    2
    38    19    39    1
    39    20    21    1
    40    20    22    1
    41    22    23    2
    42    22    40    1
@<TRIPOS>SUBSTRUCTURE
     1 ZINC001362451754        1 TEMP              0 ****  ****    0 ROOT


##########                                Name:    ZINC001248546333
##########                DOCK_Rotatable_Bonds:                   6
##########                         Heavy_Atoms:                  27
##########                    Molecular_Weight:             378.397
##########                DOCK_Rotatable_Bonds:                   6
##########                       Formal_Charge:         3.94881e-07
##########                     HBond_Acceptors:                   8
##########                        HBond_Donors:                   1
##########                         Heavy_Atoms:                  27
##########                          Grid_Score:          -26.483810
##########                     Grid_vdw_energy:          -26.577868
##########                      Grid_es_energy:            0.094057
##########           Internal_energy_repulsive:           11.436522

@<TRIPOS>MOLECULE
ZINC001248546333
 48 50 1 0 0
SMALL
USER_CHARGES


@<TRIPOS>ATOM
      1 C1        -13.8903    0.5317   48.2144 C.3     1  ZINC001248546333   -0.1200
      2 C2        -13.1604    0.6751   49.5251 C.ar    1  ZINC001248546333   -0.0800
      3 C3        -12.6427    1.9030   49.8958 C.ar    1  ZINC001248546333   -0.1200
      4 C4        -11.9713    2.0430   51.0976 C.ar    1  ZINC001248546333   -0.1100
      5 C5        -11.8148    0.9574   51.9342 C.ar    1  ZINC001248546333   -0.1100
      6 C6        -12.3352   -0.2840   51.5663 C.ar    1  ZINC001248546333   -0.0600
      7 C7        -12.1712   -1.4515   52.4580 C.2     1  ZINC001248546333   -0.0600
      8 C8        -10.9698   -1.7066   52.9168 C.2     1  ZINC001248546333   -0.1700
      9 C9        -10.6565   -2.8694   53.8169 C.3     1  ZINC001248546333    0.1500
     10 N10       -11.9142   -3.4691   54.2855 N.am    1  ZINC001248546333   -0.6300
     11 C11       -12.0776   -3.8401   55.5708 C.2     1  ZINC001248546333    0.7200
     12 O12       -13.1282   -4.3338   55.9322 O.2     1  ZINC001248546333   -0.5800
     13 N13       -11.0763   -3.6638   56.4557 N.am    1  ZINC001248546333   -0.7500
     14 C14       -11.2539   -4.0670   57.8528 C.3     1  ZINC001248546333    0.2000
     15 C15       -11.3812   -2.8395   58.7177 C.2     1  ZINC001248546333    0.0700
     16 C16       -10.3603   -2.1369   59.2610 C.2     1  ZINC001248546333   -0.2000
     17 C17       -10.9079   -1.0754   59.9889 C.2     1  ZINC001248546333   -0.0200
     18 C18       -10.1312   -0.0378   60.7578 C.3     1  ZINC001248546333    0.5600
     19 F19        -9.3907   -0.6627   61.7670 F       1  ZINC001248546333   -0.1700
     20 F20        -9.2632    0.6330   59.8898 F       1  ZINC001248546333   -0.1700
     21 F21       -11.0187    0.8794   61.3307 F       1  ZINC001248546333   -0.1600
     22 N22       -12.2106   -1.1383   59.8861 N.2     1  ZINC001248546333   -0.2200
     23 N23       -12.5336   -2.2405   59.0841 N.pl3   1  ZINC001248546333   -0.3400
     24 C24       -13.8844   -2.6720   58.7158 C.3     1  ZINC001248546333    0.0900
     25 C25       -12.9885   -3.6487   53.2937 C.3     1  ZINC001248546333    0.1300
     26 C26       -13.3913   -2.2614   52.7818 C.3     1  ZINC001248546333   -0.1000
     27 C27       -13.0153   -0.4174   50.3555 C.ar    1  ZINC001248546333   -0.1100
     28 H28       -14.9507    0.7340   48.3649 H       1  ZINC001248546333    0.0700
     29 H29       -13.4839    1.2404   47.4928 H       1  ZINC001248546333    0.0700
     30 H30       -13.7640   -0.4833   47.8374 H       1  ZINC001248546333    0.0700
     31 H31       -12.7625    2.7560   49.2443 H       1  ZINC001248546333    0.1200
     32 H32       -11.5686    3.0042   51.3810 H       1  ZINC001248546333    0.1200
     33 H33       -11.2902    1.0679   52.8718 H       1  ZINC001248546333    0.1200
     34 H34       -10.1629   -1.0470   52.6333 H       1  ZINC001248546333    0.1200
     35 H35       -10.0820   -3.6130   53.2647 H       1  ZINC001248546333    0.0800
     36 H36       -10.0775   -2.5221   54.6726 H       1  ZINC001248546333    0.0800
     37 H37       -10.2380   -3.2699   56.1674 H       1  ZINC001248546333    0.4000
     38 H38       -12.1565   -4.6713   57.9445 H       1  ZINC001248546333    0.1000
     39 H39       -10.3917   -4.6507   58.1750 H       1  ZINC001248546333    0.0900
     40 H40        -9.3087   -2.3572   59.1522 H       1  ZINC001248546333    0.1700
     41 H41       -14.1825   -2.1815   57.7891 H       1  ZINC001248546333    0.0900
     42 H42       -13.8946   -3.7528   58.5744 H       1  ZINC001248546333    0.1000
     43 H43       -14.5809   -2.4029   59.5098 H       1  ZINC001248546333    0.1000
     44 H44       -12.6281   -4.2604   52.4667 H       1  ZINC001248546333    0.0700
     45 H45       -13.8464   -4.1304   53.7629 H       1  ZINC001248546333    0.1000
     46 H46       -13.9773   -1.7512   53.5463 H       1  ZINC001248546333    0.0800
     47 H47       -13.9957   -2.3709   51.8815 H       1  ZINC001248546333    0.0900
     48 H48       -13.4204   -1.3756   50.0650 H       1  ZINC001248546333    0.1200
@<TRIPOS>BOND
     1     1     2    1
     2     1    28    1
     3     1    29    1
     4     1    30    1
     5     2    27   ar
     6     2     3   ar
     7     3     4   ar
     8     3    31    1
     9     4     5   ar
    10     4    32    1
    11     5     6   ar
    12     5    33    1
    13     6     7    1
    14     6    27   ar
    15     7    26    1
    16     7     8    2
    17     8     9    1
    18     8    34    1
    19     9    10    1
    20     9    35    1
    21     9    36    1
    22    10    11   am
    23    10    25    1
    24    11    12    2
    25    11    13   am
    26    13    14    1
    27    13    37    1
    28    14    15    1
    29    14    38    1
    30    14    39    1
    31    15    23    1
    32    15    16    2
    33    16    17    1
    34    16    40    1
    35    17    18    1
    36    17    22    2
    37    18    19    1
    38    18    20    1
    39    18    21    1
    40    22    23    1
    41    23    24    1
    42    24    41    1
    43    24    42    1
    44    24    43    1
    45    25    26    1
    46    25    44    1
    47    25    45    1
    48    26    46    1
    49    26    47    1
    50    27    48    1
@<TRIPOS>SUBSTRUCTURE
     1 ZINC001248546333        1 TEMP              0 ****  ****    0 ROOT


##########                                Name:    ZINC000650955167
##########                DOCK_Rotatable_Bonds:                   9
##########                         Heavy_Atoms:                  26
##########                    Molecular_Weight:             361.484
##########                DOCK_Rotatable_Bonds:                   9
##########                       Formal_Charge:        -7.07805e-07
##########                     HBond_Acceptors:                   6
##########                        HBond_Donors:                   2
##########                         Heavy_Atoms:                  26
##########                          Grid_Score:          -26.474373
##########                     Grid_vdw_energy:          -24.278223
##########                      Grid_es_energy:           -2.196151
##########           Internal_energy_repulsive:           14.770865

@<TRIPOS>MOLECULE
ZINC000650955167
 57 59 1 0 0
SMALL
USER_CHARGES


@<TRIPOS>ATOM
      1 C1         -1.5593    1.4483   46.6393 C.3     1  ZINC000650955167    0.0200
      2 O2         -0.7656    1.0988   47.7751 O.3     1  ZINC000650955167   -0.3200
      3 C3          0.5700    0.9505   47.5724 C.ar    1  ZINC000650955167    0.1300
      4 C4          1.0450   -0.1188   46.8275 C.ar    1  ZINC000650955167   -0.2000
      5 C5          2.4034   -0.2670   46.6223 C.ar    1  ZINC000650955167   -0.0800
      6 C6          3.2887    0.6490   47.1592 C.ar    1  ZINC000650955167   -0.1500
      7 C7          2.8177    1.7156   47.9027 C.ar    1  ZINC000650955167   -0.0800
      8 C8          1.4602    1.8717   48.1054 C.ar    1  ZINC000650955167   -0.1100
      9 C9          0.9475    3.0345   48.9152 C.3     1  ZINC000650955167   -0.0800
     10 C10         0.9636    2.6682   50.4006 C.3     1  ZINC000650955167    0.1800
     11 H11         0.9517    1.5835   50.5074 H       1  ZINC000650955167    0.0900
     12 N12        -0.2168    3.2365   51.0564 N.am    1  ZINC000650955167   -0.7300
     13 C13        -1.2976    2.4645   51.2853 C.2     1  ZINC000650955167    0.7400
     14 O14        -1.2925    1.2961   50.9489 O.2     1  ZINC000650955167   -0.5800
     15 N15        -2.3841    2.9877   51.8872 N.am    1  ZINC000650955167   -0.6700
     16 C16        -2.7708    4.3044   52.4159 C.3     1  ZINC000650955167    0.1100
     17 C17        -3.7087    3.5777   53.3897 C.3     1  ZINC000650955167    0.0300
     18 N18        -5.0081    4.2363   53.5791 N.3     1  ZINC000650955167   -0.5100
     19 C19        -4.8347    5.6722   53.8854 C.3     1  ZINC000650955167    0.0400
     20 C20        -5.9971    6.0140   54.8506 C.3     1  ZINC000650955167   -0.1600
     21 C21        -6.0898    4.7195   55.7004 C.3     1  ZINC000650955167    0.0800
     22 H22        -5.3538    4.7326   56.5043 H       1  ZINC000650955167    0.0600
     23 O23        -7.4079    4.5541   56.2272 O.3     1  ZINC000650955167   -0.5600
     24 C24        -5.7629    3.6093   54.6795 C.3     1  ZINC000650955167    0.0500
     25 C25        -3.7073    2.4946   52.2984 C.3     1  ZINC000650955167    0.1400
     26 C26         2.2289    3.2310   51.0510 C.3     1  ZINC000650955167   -0.1100
     27 C27         1.9153    4.5867   51.6873 C.3     1  ZINC000650955167   -0.1400
     28 C28         2.7219    2.2635   52.1289 C.3     1  ZINC000650955167   -0.1500
     29 H29        -2.6038    1.5350   46.9388 H       1  ZINC000650955167    0.1000
     30 H30        -1.2168    2.4013   46.2360 H       1  ZINC000650955167    0.0600
     31 H31        -1.4628    0.6753   45.8769 H       1  ZINC000650955167    0.0600
     32 H32         0.3539   -0.8351   46.4084 H       1  ZINC000650955167    0.1300
     33 H33         2.7738   -1.0994   46.0424 H       1  ZINC000650955167    0.1200
     34 H34         4.3501    0.5312   46.9981 H       1  ZINC000650955167    0.1200
     35 H35         3.5113    2.4297   48.3213 H       1  ZINC000650955167    0.1300
     36 H36         1.5850    3.9028   48.7482 H       1  ZINC000650955167    0.0900
     37 H37        -0.0723    3.2685   48.6097 H       1  ZINC000650955167    0.0800
     38 H38        -0.2204    4.1682   51.3259 H       1  ZINC000650955167    0.4000
     39 H39        -1.9543    4.8304   52.9105 H       1  ZINC000650955167    0.0700
     40 H40        -3.2954    4.9263   51.6905 H       1  ZINC000650955167    0.0900
     41 H41        -3.2368    3.2788   54.3256 H       1  ZINC000650955167    0.0900
     42 H42        -3.8745    5.8430   54.3724 H       1  ZINC000650955167    0.0500
     43 H43        -4.9103    6.2664   52.9748 H       1  ZINC000650955167    0.0900
     44 H44        -5.7477    6.8731   55.4735 H       1  ZINC000650955167    0.0800
     45 H45        -6.9224    6.1876   54.3013 H       1  ZINC000650955167    0.0900
     46 H46        -7.5300    3.7386   56.7322 H       1  ZINC000650955167    0.3800
     47 H47        -6.6860    3.1749   54.2957 H       1  ZINC000650955167    0.0900
     48 H48        -5.1560    2.8374   55.1528 H       1  ZINC000650955167    0.0700
     49 H49        -4.4811    2.6373   51.5442 H       1  ZINC000650955167    0.0900
     50 H50        -3.6862    1.4793   52.6945 H       1  ZINC000650955167    0.0800
     51 H51         3.0024    3.3555   50.2933 H       1  ZINC000650955167    0.0700
     52 H52         1.1418    4.4622   52.4452 H       1  ZINC000650955167    0.0600
     53 H53         2.8168    4.9876   52.1508 H       1  ZINC000650955167    0.0400
     54 H54         1.5641    5.2759   50.9194 H       1  ZINC000650955167    0.0500
     55 H55         2.9451    1.2977   51.6756 H       1  ZINC000650955167    0.0600
     56 H56         3.6232    2.6645   52.5923 H       1  ZINC000650955167    0.0600
     57 H57         1.9482    2.1390   52.8866 H       1  ZINC000650955167    0.0600
@<TRIPOS>BOND
     1     1     2    1
     2     1    29    1
     3     1    30    1
     4     1    31    1
     5     2     3    1
     6     3     8   ar
     7     3     4   ar
     8     4     5   ar
     9     4    32    1
    10     5     6   ar
    11     5    33    1
    12     6     7   ar
    13     6    34    1
    14     7     8   ar
    15     7    35    1
    16     8     9    1
    17     9    10    1
    18     9    36    1
    19     9    37    1
    20    10    11    1
    21    10    12    1
    22    10    26    1
    23    12    13   am
    24    12    38    1
    25    13    14    2
    26    13    15   am
    27    15    25    1
    28    15    16    1
    29    16    17    1
    30    16    39    1
    31    16    40    1
    32    17    18    1
    33    17    25    1
    34    17    41    1
    35    18    24    1
    36    18    19    1
    37    19    20    1
    38    19    42    1
    39    19    43    1
    40    20    21    1
    41    20    44    1
    42    20    45    1
    43    21    22    1
    44    21    23    1
    45    21    24    1
    46    23    46    1
    47    24    47    1
    48    24    48    1
    49    25    49    1
    50    25    50    1
    51    26    27    1
    52    26    28    1
    53    26    51    1
    54    27    52    1
    55    27    53    1
    56    27    54    1
    57    28    55    1
    58    28    56    1
    59    28    57    1
@<TRIPOS>SUBSTRUCTURE
     1 ZINC000650955167        1 TEMP              0 ****  ****    0 ROOT


##########                                Name:    ZINC000463474628
##########                DOCK_Rotatable_Bonds:                   5
##########                         Heavy_Atoms:                  25
##########                    Molecular_Weight:              407.35
##########                DOCK_Rotatable_Bonds:                   5
##########                       Formal_Charge:           0.0200004
##########                     HBond_Acceptors:                   4
##########                        HBond_Donors:                   0
##########                         Heavy_Atoms:                  25
##########                          Grid_Score:          -26.463188
##########                     Grid_vdw_energy:          -27.067400
##########                      Grid_es_energy:            0.604212
##########           Internal_energy_repulsive:           66.360092

@<TRIPOS>MOLECULE
ZINC000463474628
 52 54 1 0 0
SMALL
USER_CHARGES


@<TRIPOS>ATOM
      1 C1        -17.8407   -1.8412   61.3731 C.3     1  ZINC000463474628   -0.1400
      2 C2        -16.8298   -1.8107   60.2250 C.3     1  ZINC000463474628   -0.1300
      3 C3        -15.5390   -2.5054   60.6633 C.3     1  ZINC000463474628    0.1400
      4 H4        -15.7450   -3.5460   60.9137 H       1  ZINC000463474628    0.0800
      5 C5        -14.9418   -1.7794   61.8871 C.3     1  ZINC000463474628   -0.1300
      6 C6        -13.4157   -1.8325   61.6121 C.3     1  ZINC000463474628   -0.1300
      7 C7        -13.3720   -1.6819   60.0710 C.3     1  ZINC000463474628    0.0900
      8 N8        -14.5436   -2.4386   59.5834 N.am    1  ZINC000463474628   -0.6100
      9 C9        -14.6762   -2.9749   58.3542 C.2     1  ZINC000463474628    0.5300
     10 O10       -15.6867   -3.5785   58.0616 O.2     1  ZINC000463474628   -0.5100
     11 C11       -13.5688   -2.8247   57.3431 C.3     1  ZINC000463474628   -0.1200
     12 H12       -13.9227   -3.1502   56.3648 H       1  ZINC000463474628    0.1000
     13 C13       -12.3728   -3.6815   57.7644 C.3     1  ZINC000463474628   -0.1000
     14 C14       -11.2600   -3.5553   56.7214 C.3     1  ZINC000463474628   -0.1300
     15 C15       -10.8042   -2.0949   56.6409 C.3     1  ZINC000463474628    0.0900
     16 N16       -11.9756   -1.2477   56.3791 N.am    1  ZINC000463474628   -0.6000
     17 C17       -11.9828   -0.3874   55.3416 C.2     1  ZINC000463474628    0.5700
     18 O18       -12.9583    0.3081   55.1355 O.2     1  ZINC000463474628   -0.5200
     19 C19       -10.8048   -0.2897   54.4545 C.ar    1  ZINC000463474628   -0.1200
     20 C20        -9.7194    0.5100   54.8163 C.ar    1  ZINC000463474628   -0.0800
     21 C21        -8.6229    0.5972   53.9842 C.ar    1  ZINC000463474628   -0.1000
     22 C22        -8.5973   -0.1065   52.7920 C.ar    1  ZINC000463474628   -0.0700
     23 Br23       -7.0898    0.0180   51.6573 Br      1  ZINC000463474628   -0.0400
     24 C24        -9.6711   -0.9017   52.4275 C.ar    1  ZINC000463474628   -0.0900
     25 C25       -10.7705   -1.0014   53.2537 C.ar    1  ZINC000463474628   -0.0300
     26 C26       -11.9382   -1.8669   52.8555 C.3     1  ZINC000463474628   -0.1300
     27 C27       -13.1398   -1.3560   57.2690 C.3     1  ZINC000463474628    0.1200
     28 H28       -18.3625   -2.7980   61.3723 H       1  ZINC000463474628    0.0700
     29 H29       -17.3178   -1.7132   62.3209 H       1  ZINC000463474628    0.0600
     30 H30       -18.5616   -1.0340   61.2439 H       1  ZINC000463474628    0.0300
     31 H31       -17.2459   -2.3286   59.3608 H       1  ZINC000463474628    0.0600
     32 H32       -16.6132   -0.7761   59.9589 H       1  ZINC000463474628    0.0700
     33 H33       -15.2900   -0.7474   61.9312 H       1  ZINC000463474628    0.0800
     34 H34       -15.1865   -2.3096   62.8075 H       1  ZINC000463474628    0.0800
     35 H35       -12.9017   -1.0046   62.1003 H       1  ZINC000463474628    0.0900
     36 H36       -12.9957   -2.7890   61.9232 H       1  ZINC000463474628    0.0800
     37 H37       -13.4533   -0.6320   59.7900 H       1  ZINC000463474628    0.0700
     38 H38       -12.4525   -2.1117   59.6737 H       1  ZINC000463474628    0.0800
     39 H39       -12.0043   -3.3400   58.7317 H       1  ZINC000463474628    0.0800
     40 H40       -12.6818   -4.7239   57.8413 H       1  ZINC000463474628    0.0700
     41 H41       -10.4176   -4.1839   57.0101 H       1  ZINC000463474628    0.0800
     42 H42       -11.6353   -3.8734   55.7487 H       1  ZINC000463474628    0.0700
     43 H43       -10.3457   -1.8027   57.5856 H       1  ZINC000463474628    0.0800
     44 H44       -10.0829   -1.9813   55.8316 H       1  ZINC000463474628    0.1000
     45 H45        -9.7384    1.0596   55.7458 H       1  ZINC000463474628    0.1400
     46 H46        -7.7827    1.2158   54.2629 H       1  ZINC000463474628    0.1400
     47 H47        -9.6455   -1.4479   51.4961 H       1  ZINC000463474628    0.1400
     48 H48       -11.8351   -2.8500   53.3150 H       1  ZINC000463474628    0.0700
     49 H49       -12.8655   -1.4037   53.1926 H       1  ZINC000463474628    0.0900
     50 H50       -11.9584   -1.9733   51.7708 H       1  ZINC000463474628    0.0700
     51 H51       -13.9588   -0.7547   56.8743 H       1  ZINC000463474628    0.1000
     52 H52       -12.8721   -1.0036   58.2652 H       1  ZINC000463474628    0.0800
@<TRIPOS>BOND
     1     1     2    1
     2     1    28    1
     3     1    29    1
     4     1    30    1
     5     2     3    1
     6     2    31    1
     7     2    32    1
     8     3     4    1
     9     3     8    1
    10     3     5    1
    11     5     6    1
    12     5    33    1
    13     5    34    1
    14     6     7    1
    15     6    35    1
    16     6    36    1
    17     7     8    1
    18     7    37    1
    19     7    38    1
    20     8     9   am
    21     9    10    2
    22     9    11    1
    23    11    12    1
    24    11    27    1
    25    11    13    1
    26    13    14    1
    27    13    39    1
    28    13    40    1
    29    14    15    1
    30    14    41    1
    31    14    42    1
    32    15    16    1
    33    15    43    1
    34    15    44    1
    35    16    17   am
    36    16    27    1
    37    17    18    2
    38    17    19    1
    39    19    25   ar
    40    19    20   ar
    41    20    21   ar
    42    20    45    1
    43    21    22   ar
    44    21    46    1
    45    22    23    1
    46    22    24   ar
    47    24    25   ar
    48    24    47    1
    49    25    26    1
    50    26    48    1
    51    26    49    1
    52    26    50    1
    53    27    51    1
    54    27    52    1
@<TRIPOS>SUBSTRUCTURE
     1 ZINC000463474628        1 TEMP              0 ****  ****    0 ROOT


##########                                Name:    ZINC000543429378
##########                DOCK_Rotatable_Bonds:                   6
##########                         Heavy_Atoms:                  29
##########                    Molecular_Weight:             406.408
##########                DOCK_Rotatable_Bonds:                   6
##########                       Formal_Charge:           0.0100003
##########                     HBond_Acceptors:                   9
##########                        HBond_Donors:                   1
##########                         Heavy_Atoms:                  29
##########                          Grid_Score:          -26.413702
##########                     Grid_vdw_energy:          -26.292501
##########                      Grid_es_energy:           -0.121200
##########           Internal_energy_repulsive:           43.920898

@<TRIPOS>MOLECULE
ZINC000543429378
 50 53 1 0 0
SMALL
USER_CHARGES


@<TRIPOS>ATOM
      1 O1        -14.7921   -1.6467   56.8088 O.2     1  ZINC000543429378   -0.5100
      2 C2        -14.4488   -2.7878   57.0344 C.2     1  ZINC000543429378    0.5200
      3 N3        -14.0800   -3.5939   56.0191 N.am    1  ZINC000543429378   -0.6600
      4 C4        -14.0987   -3.1160   54.7042 C.ar    1  ZINC000543429378    0.1900
      5 C5        -15.3099   -2.9051   54.0582 C.ar    1  ZINC000543429378   -0.1600
      6 C6        -15.3283   -2.4327   52.7599 C.ar    1  ZINC000543429378   -0.0600
      7 C7        -14.1428   -2.1693   52.1009 C.ar    1  ZINC000543429378   -0.2100
      8 C8        -12.9293   -2.3782   52.7417 C.ar    1  ZINC000543429378    0.1300
      9 O9        -11.7640   -2.1188   52.0923 O.3     1  ZINC000543429378   -0.3100
     10 C10       -10.5539   -2.3244   52.8240 C.3     1  ZINC000543429378    0.6000
     11 F11       -10.5371   -1.4850   53.9431 F       1  ZINC000543429378   -0.1600
     12 F12       -10.4816   -3.6581   53.2403 F       1  ZINC000543429378   -0.1300
     13 F13        -9.4583   -2.0316   52.0050 F       1  ZINC000543429378   -0.1600
     14 C14       -12.9068   -2.8466   54.0458 C.ar    1  ZINC000543429378   -0.1300
     15 C15       -14.4286   -3.3026   58.4506 C.3     1  ZINC000543429378    0.0700
     16 H16       -14.2810   -4.3825   58.4511 H       1  ZINC000543429378    0.1200
     17 C17       -15.7644   -2.9504   59.1610 C.3     1  ZINC000543429378   -0.1200
     18 C18       -15.2856   -2.6023   60.5788 C.3     1  ZINC000543429378   -0.1000
     19 H19       -15.0770   -3.5040   61.1546 H       1  ZINC000543429378    0.0900
     20 C20       -16.1884   -1.6580   61.3543 C.3     1  ZINC000543429378   -0.1100
     21 C21       -15.4809   -1.3359   62.6802 C.3     1  ZINC000543429378   -0.1200
     22 C22       -14.1076   -0.7141   62.4446 C.3     1  ZINC000543429378   -0.1100
     23 C23       -13.2357   -1.6057   61.5448 C.3     1  ZINC000543429378   -0.0900
     24 C24       -13.9792   -1.8302   60.2487 C.3     1  ZINC000543429378    0.0700
     25 H25       -14.2537   -0.8663   59.8201 H       1  ZINC000543429378    0.0900
     26 N26       -13.3381   -2.6419   59.2143 N.3     1  ZINC000543429378   -0.4300
     27 C27       -12.5646   -1.8573   58.3766 C.ar    1  ZINC000543429378    0.5000
     28 N28       -11.5964   -2.4238   57.6715 N.ar    1  ZINC000543429378   -0.5300
     29 C29       -10.8393   -1.7028   56.8612 C.ar    1  ZINC000543429378    0.1800
     30 C30       -11.0691   -0.3400   56.7554 C.ar    1  ZINC000543429378   -0.2500
     31 C31       -12.0900    0.2201   57.5072 C.ar    1  ZINC000543429378    0.1800
     32 N32       -12.8135   -0.5585   58.2946 N.ar    1  ZINC000543429378   -0.5300
     33 H33       -13.8016   -4.5053   56.2001 H       1  ZINC000543429378    0.4200
     34 H34       -16.2379   -3.1109   54.5708 H       1  ZINC000543429378    0.1400
     35 H35       -16.2711   -2.2694   52.2591 H       1  ZINC000543429378    0.1400
     36 H36       -14.1603   -1.8008   51.0860 H       1  ZINC000543429378    0.1400
     37 H37       -11.9636   -3.0096   54.5459 H       1  ZINC000543429378    0.1500
     38 H38       -16.2423   -2.0919   58.6892 H       1  ZINC000543429378    0.0800
     39 H39       -16.4359   -3.8089   59.1762 H       1  ZINC000543429378    0.0900
     40 H40       -16.3436   -0.7418   60.7846 H       1  ZINC000543429378    0.0700
     41 H41       -17.1460   -2.1395   61.5524 H       1  ZINC000543429378    0.0700
     42 H42       -16.0943   -0.6387   63.2511 H       1  ZINC000543429378    0.0600
     43 H43       -15.3620   -2.2554   63.2532 H       1  ZINC000543429378    0.0600
     44 H44       -14.2333    0.2584   61.9686 H       1  ZINC000543429378    0.0600
     45 H45       -13.6081   -0.5785   63.4038 H       1  ZINC000543429378    0.0700
     46 H46       -12.2839   -1.1132   61.3456 H       1  ZINC000543429378    0.0700
     47 H47       -13.0625   -2.5660   62.0306 H       1  ZINC000543429378    0.0700
     48 H48       -10.0514   -2.1702   56.2893 H       1  ZINC000543429378    0.1600
     49 H49       -10.4655    0.2722   56.1017 H       1  ZINC000543429378    0.1400
     50 H50       -12.2947    1.2789   57.4479 H       1  ZINC000543429378    0.1600
@<TRIPOS>BOND
     1     1     2    2
     2     2     3   am
     3     2    15    1
     4     3     4    1
     5     3    33    1
     6     4    14   ar
     7     4     5   ar
     8     5     6   ar
     9     5    34    1
    10     6     7   ar
    11     6    35    1
    12     7     8   ar
    13     7    36    1
    14     8     9    1
    15     8    14   ar
    16     9    10    1
    17    10    11    1
    18    10    12    1
    19    10    13    1
    20    14    37    1
    21    15    16    1
    22    15    26    1
    23    15    17    1
    24    17    18    1
    25    17    38    1
    26    17    39    1
    27    18    19    1
    28    18    24    1
    29    18    20    1
    30    20    21    1
    31    20    40    1
    32    20    41    1
    33    21    22    1
    34    21    42    1
    35    21    43    1
    36    22    23    1
    37    22    44    1
    38    22    45    1
    39    23    24    1
    40    23    46    1
    41    23    47    1
    42    24    25    1
    43    24    26    1
    44    26    27    1
    45    27    32   ar
    46    27    28   ar
    47    28    29   ar
    48    29    30   ar
    49    29    48    1
    50    30    31   ar
    51    30    49    1
    52    31    32   ar
    53    31    50    1
@<TRIPOS>SUBSTRUCTURE
     1 ZINC000543429378        1 TEMP              0 ****  ****    0 ROOT


##########                                Name:    ZINC001708427409
##########                DOCK_Rotatable_Bonds:                   6
##########                         Heavy_Atoms:                  24
##########                    Molecular_Weight:             334.505
##########                DOCK_Rotatable_Bonds:                   6
##########                       Formal_Charge:          -0.0200006
##########                     HBond_Acceptors:                   5
##########                        HBond_Donors:                   1
##########                         Heavy_Atoms:                  24
##########                          Grid_Score:          -26.398909
##########                     Grid_vdw_energy:          -26.140009
##########                      Grid_es_energy:           -0.258899
##########           Internal_energy_repulsive:           17.876329

@<TRIPOS>MOLECULE
ZINC001708427409
 58 60 1 0 0
SMALL
USER_CHARGES


@<TRIPOS>ATOM
      1 C1         -2.3354    4.4483   55.8784 C.3     1  ZINC001708427409   -0.1500
      2 C2         -2.8249    3.4124   54.8645 C.3     1  ZINC001708427409   -0.1200
      3 C3         -3.2833    4.1235   53.5898 C.3     1  ZINC001708427409    0.0000
      4 H4         -2.8793    5.1358   53.5731 H       1  ZINC001708427409    0.0800
      5 C5         -4.8118    4.1840   53.5610 C.3     1  ZINC001708427409   -0.1400
      6 C6         -2.7878    3.3651   52.3855 C.2     1  ZINC001708427409    0.1800
      7 N7         -3.3581    2.3303   51.8362 N.2     1  ZINC001708427409   -0.2800
      8 N8         -2.6693    1.9314   50.8271 N.2     1  ZINC001708427409   -0.3200
      9 C9         -1.6139    2.6966   50.6772 C.2     1  ZINC001708427409    0.3600
     10 N10        -0.6401    2.5745   49.6987 N.3     1  ZINC001708427409   -0.4200
     11 C11        -1.2544    2.3953   48.3539 C.3     1  ZINC001708427409    0.0400
     12 C12        -0.1524    1.7261   47.5035 C.3     1  ZINC001708427409   -0.0900
     13 H13         0.3777    2.4740   46.9140 H       1  ZINC001708427409    0.0900
     14 C14        -0.7604    0.6618   46.5878 C.3     1  ZINC001708427409   -0.1500
     15 C15         0.8075    1.0709   48.5325 C.3     1  ZINC001708427409   -0.0800
     16 H16         0.9110    0.0017   48.3478 H       1  ZINC001708427409    0.0900
     17 C17         2.1553    1.7818   48.4065 C.3     1  ZINC001708427409   -0.1100
     18 C18         3.0478    1.4108   49.5904 C.3     1  ZINC001708427409   -0.1200
     19 C19         2.4163    1.9659   50.8652 C.3     1  ZINC001708427409   -0.1100
     20 C20         1.0388    1.3733   51.0821 C.3     1  ZINC001708427409   -0.1000
     21 C21         0.1415    1.3323   49.8808 C.3     1  ZINC001708427409    0.1000
     22 H22        -0.5814    0.5337   50.0477 H       1  ZINC001708427409    0.0600
     23 N23        -1.6596    3.6388   51.6631 N.pl3   1  ZINC001708427409   -0.4700
     24 C24        -0.6946    4.7146   51.9037 C.3     1  ZINC001708427409    0.0800
     25 C25        -1.0043    5.8937   50.9793 C.3     1  ZINC001708427409    0.1200
     26 C26        -2.1074    6.7528   51.6008 C.3     1  ZINC001708427409   -0.1800
     27 C27         0.2566    6.7398   50.7920 C.3     1  ZINC001708427409   -0.1500
     28 O28        -1.4410    5.4023   49.7104 O.3     1  ZINC001708427409   -0.5400
     29 H29        -3.1475    5.1349   56.1175 H       1  ZINC001708427409    0.0600
     30 H30        -2.0088    3.9416   56.7867 H       1  ZINC001708427409    0.0600
     31 H31        -1.5010    5.0063   55.4537 H       1  ZINC001708427409    0.0500
     32 H32        -2.0128    2.7258   54.6255 H       1  ZINC001708427409    0.0700
     33 H33        -3.6593    2.8544   55.2893 H       1  ZINC001708427409    0.0800
     34 H34        -5.1702    4.7325   54.4320 H       1  ZINC001708427409    0.0700
     35 H35        -5.1384    4.6906   52.6528 H       1  ZINC001708427409    0.0500
     36 H36        -5.2158    3.1717   53.5776 H       1  ZINC001708427409    0.0700
     37 H37        -2.1290    1.7480   48.4192 H       1  ZINC001708427409    0.0600
     38 H38        -1.5271    3.3615   47.9293 H       1  ZINC001708427409    0.0800
     39 H39        -1.4697    1.1311   45.9062 H       1  ZINC001708427409    0.0600
     40 H40         0.0316    0.1811   46.0136 H       1  ZINC001708427409    0.0600
     41 H41        -1.2761   -0.0851   47.1913 H       1  ZINC001708427409    0.0600
     42 H42         2.6398    1.4784   47.4783 H       1  ZINC001708427409    0.0600
     43 H43         1.9968    2.8601   48.3959 H       1  ZINC001708427409    0.0700
     44 H44         3.1274    0.3262   49.6634 H       1  ZINC001708427409    0.0600
     45 H45         4.0380    1.8454   49.4529 H       1  ZINC001708427409    0.0600
     46 H46         3.0510    1.7205   51.7166 H       1  ZINC001708427409    0.0600
     47 H47         2.3318    3.0495   50.7817 H       1  ZINC001708427409    0.0600
     48 H48         1.1598    0.3507   51.4397 H       1  ZINC001708427409    0.0600
     49 H49         0.5401    1.9462   51.8638 H       1  ZINC001708427409    0.0700
     50 H50        -0.7635    5.0390   52.9420 H       1  ZINC001708427409    0.0900
     51 H51         0.3131    4.3504   51.7030 H       1  ZINC001708427409    0.1000
     52 H52        -1.7742    7.1276   52.5685 H       1  ZINC001708427409    0.0700
     53 H53        -2.3281    7.5929   50.9421 H       1  ZINC001708427409    0.0700
     54 H54        -3.0056    6.1500   51.7342 H       1  ZINC001708427409    0.0600
     55 H55         1.0668    6.1087   50.4268 H       1  ZINC001708427409    0.0700
     56 H56         0.0588    7.5317   50.0694 H       1  ZINC001708427409    0.0700
     57 H57         0.5425    7.1821   51.7464 H       1  ZINC001708427409    0.0700
     58 H58        -2.2380    4.8563   49.7533 H       1  ZINC001708427409    0.3800
@<TRIPOS>BOND
     1     1     2    1
     2     1    29    1
     3     1    30    1
     4     1    31    1
     5     2     3    1
     6     2    32    1
     7     2    33    1
     8     3     4    1
     9     3     5    1
    10     3     6    1
    11     5    34    1
    12     5    35    1
    13     5    36    1
    14     6    23    1
    15     6     7    2
    16     7     8    1
    17     8     9    2
    18     9    10    1
    19     9    23    1
    20    10    21    1
    21    10    11    1
    22    11    12    1
    23    11    37    1
    24    11    38    1
    25    12    13    1
    26    12    14    1
    27    12    15    1
    28    14    39    1
    29    14    40    1
    30    14    41    1
    31    15    16    1
    32    15    21    1
    33    15    17    1
    34    17    18    1
    35    17    42    1
    36    17    43    1
    37    18    19    1
    38    18    44    1
    39    18    45    1
    40    19    20    1
    41    19    46    1
    42    19    47    1
    43    20    21    1
    44    20    48    1
    45    20    49    1
    46    21    22    1
    47    23    24    1
    48    24    25    1
    49    24    50    1
    50    24    51    1
    51    25    26    1
    52    25    27    1
    53    25    28    1
    54    26    52    1
    55    26    53    1
    56    26    54    1
    57    27    55    1
    58    27    56    1
    59    27    57    1
    60    28    58    1
@<TRIPOS>SUBSTRUCTURE
     1 ZINC001708427409        1 TEMP              0 ****  ****    0 ROOT


##########                                Name:    ZINC001076281847
##########                DOCK_Rotatable_Bonds:                   4
##########                         Heavy_Atoms:                  24
##########                    Molecular_Weight:             362.883
##########                DOCK_Rotatable_Bonds:                   4
##########                       Formal_Charge:         -0.00999959
##########                     HBond_Acceptors:                   7
##########                        HBond_Donors:                   0
##########                         Heavy_Atoms:                  24
##########                          Grid_Score:          -26.392097
##########                     Grid_vdw_energy:          -27.042768
##########                      Grid_es_energy:            0.650671
##########           Internal_energy_repulsive:            6.726709

@<TRIPOS>MOLECULE
ZINC001076281847
 43 46 1 0 0
SMALL
USER_CHARGES


@<TRIPOS>ATOM
      1 C1         -3.6530    5.3908   52.7050 C.3     1  ZINC001076281847   -0.0900
      2 C2         -2.8959    4.2649   52.0490 C.2     1  ZINC001076281847    0.1400
      3 N3         -3.0341    3.0324   52.4411 N.2     1  ZINC001076281847   -0.4600
      4 S4         -2.0264    2.0806   51.4636 S.3     1  ZINC001076281847    0.2500
      5 C5         -1.4207    3.3859   50.5205 C.2     1  ZINC001076281847   -0.2100
      6 C6         -0.4255    3.3105   49.3913 C.3     1  ZINC001076281847    0.1200
      7 N7         -1.1242    2.9701   48.1448 N.3     1  ZINC001076281847   -0.5000
      8 C8         -1.5257    1.5547   48.1350 C.3     1  ZINC001076281847    0.0300
      9 C9         -1.2981    1.0374   46.7019 C.3     1  ZINC001076281847   -0.1000
     10 H10        -2.1976    1.0561   46.0866 H       1  ZINC001076281847    0.1200
     11 C11        -0.6397   -0.3645   46.7906 C.3     1  ZINC001076281847   -0.1300
     12 C12         0.8068   -0.0080   47.2133 C.3     1  ZINC001076281847    0.1000
     13 N13         1.1162    1.2361   46.4859 N.am    1  ZINC001076281847   -0.6000
     14 C14         2.3506    1.6684   46.1610 C.2     1  ZINC001076281847    0.5700
     15 O15         2.4889    2.7141   45.5575 O.2     1  ZINC001076281847   -0.4900
     16 C16         3.5384    0.8694   46.5395 C.ar    1  ZINC001076281847   -0.0800
     17 C17         3.9279    0.7501   47.8770 C.ar    1  ZINC001076281847   -0.1800
     18 C18         5.0423   -0.0057   48.1855 C.ar    1  ZINC001076281847    0.1000
     19 N19         5.7347   -0.6092   47.2402 N.ar    1  ZINC001076281847   -0.4500
     20 C20         5.4037   -0.5237   45.9674 C.ar    1  ZINC001076281847    0.1100
     21 C21         4.2994    0.2075   45.5689 C.ar    1  ZINC001076281847   -0.0500
     22 Cl22        3.8713    0.3134   43.8898 Cl      1  ZINC001076281847   -0.0100
     23 C23        -0.1564    1.9421   46.1648 C.3     1  ZINC001076281847    0.1000
     24 H24        -0.2488    2.1245   45.0941 H       1  ZINC001076281847    0.1100
     25 C25        -0.2761    3.2407   46.9743 C.3     1  ZINC001076281847    0.0200
     26 C26        -2.0292    4.4923   51.0020 C.2     1  ZINC001076281847   -0.1800
     27 H27        -4.5686    5.5865   52.1469 H       1  ZINC001076281847    0.0700
     28 H28        -3.9038    5.1123   53.7285 H       1  ZINC001076281847    0.0800
     29 H29        -3.0342    6.2881   52.7139 H       1  ZINC001076281847    0.0900
     30 H30         0.0698    4.2749   49.2786 H       1  ZINC001076281847    0.1000
     31 H31         0.3174    2.5441   49.6124 H       1  ZINC001076281847    0.1000
     32 H32        -0.9135    0.9887   48.8372 H       1  ZINC001076281847    0.0600
     33 H33        -2.5789    1.4641   48.4010 H       1  ZINC001076281847    0.0900
     34 H34        -1.1278   -0.9774   47.5483 H       1  ZINC001076281847    0.0900
     35 H35        -0.6513   -0.8628   45.8212 H       1  ZINC001076281847    0.0800
     36 H36         0.8573    0.1589   48.2892 H       1  ZINC001076281847    0.0800
     37 H37         1.4943   -0.8008   46.9188 H       1  ZINC001076281847    0.0800
     38 H38         3.3661    1.2418   48.6574 H       1  ZINC001076281847    0.1800
     39 H39         5.3508   -0.1031   49.2160 H       1  ZINC001076281847    0.1700
     40 H40         6.0000   -1.0350   45.2263 H       1  ZINC001076281847    0.1700
     41 H41        -0.7151    4.0224   46.3544 H       1  ZINC001076281847    0.1000
     42 H42         0.7101    3.5532   47.3178 H       1  ZINC001076281847    0.0700
     43 H43        -1.8454    5.4785   50.6020 H       1  ZINC001076281847    0.1400
@<TRIPOS>BOND
     1     1     2    1
     2     1    27    1
     3     1    28    1
     4     1    29    1
     5     2    26    1
     6     2     3    2
     7     3     4    1
     8     4     5    1
     9     5     6    1
    10     5    26    2
    11     6     7    1
    12     6    30    1
    13     6    31    1
    14     7    25    1
    15     7     8    1
    16     8     9    1
    17     8    32    1
    18     8    33    1
    19     9    10    1
    20     9    23    1
    21     9    11    1
    22    11    12    1
    23    11    34    1
    24    11    35    1
    25    12    13    1
    26    12    36    1
    27    12    37    1
    28    13    14   am
    29    13    23    1
    30    14    15    2
    31    14    16    1
    32    16    21   ar
    33    16    17   ar
    34    17    18   ar
    35    17    38    1
    36    18    19   ar
    37    18    39    1
    38    19    20   ar
    39    20    21   ar
    40    20    40    1
    41    21    22    1
    42    23    24    1
    43    23    25    1
    44    25    41    1
    45    25    42    1
    46    26    43    1
@<TRIPOS>SUBSTRUCTURE
     1 ZINC001076281847        1 TEMP              0 ****  ****    0 ROOT


##########                                Name:    ZINC000435292384
##########                DOCK_Rotatable_Bonds:                   6
##########                         Heavy_Atoms:                  22
##########                    Molecular_Weight:             326.503
##########                DOCK_Rotatable_Bonds:                   6
##########                       Formal_Charge:         -0.00999993
##########                     HBond_Acceptors:                   5
##########                        HBond_Donors:                   0
##########                         Heavy_Atoms:                  22
##########                          Grid_Score:          -26.373926
##########                     Grid_vdw_energy:          -26.568943
##########                      Grid_es_energy:            0.195017
##########           Internal_energy_repulsive:           22.795494

@<TRIPOS>MOLECULE
ZINC000435292384
 52 53 1 0 0
SMALL
USER_CHARGES


@<TRIPOS>ATOM
      1 C1         -5.7358    4.4243   55.0112 C.3     1  ZINC000435292384   -0.1500
      2 C2         -4.4057    5.1399   55.2551 C.3     1  ZINC000435292384   -0.1200
      3 C3         -3.5176    5.0014   54.0169 C.3     1  ZINC000435292384   -0.1400
      4 C4         -2.7191    3.6993   54.1051 C.3     1  ZINC000435292384    0.1600
      5 H5         -3.3418    2.9204   54.5451 H       1  ZINC000435292384    0.0900
      6 C6         -1.4822    3.9176   54.9786 C.3     1  ZINC000435292384   -0.1700
      7 N7         -2.3021    3.2903   52.7615 N.am    1  ZINC000435292384   -0.6100
      8 C8         -1.0138    3.6407   52.1518 C.3     1  ZINC000435292384    0.1200
      9 C9         -0.8385    2.6632   50.9686 C.3     1  ZINC000435292384   -0.1300
     10 H10        -0.2817    1.7773   51.2738 H       1  ZINC000435292384    0.1100
     11 C11        -0.1682    3.3428   49.8024 C.2     1  ZINC000435292384    0.5200
     12 O12        -0.0607    4.5506   49.7845 O.2     1  ZINC000435292384   -0.5200
     13 N13         0.3116    2.6082   48.7793 N.am    1  ZINC000435292384   -0.6000
     14 C14         0.1645    1.1405   48.8320 C.3     1  ZINC000435292384    0.1000
     15 C15        -0.2512    0.5499   47.4725 C.3     1  ZINC000435292384   -0.1300
     16 C16        -1.2810    1.4357   46.8155 C.3     1  ZINC000435292384   -0.1100
     17 C17        -0.5776    2.4461   45.9143 C.3     1  ZINC000435292384   -0.1200
     18 C18        -0.1125    3.6565   46.6087 C.3     1  ZINC000435292384   -0.0700
     19 H19        -0.9593    4.1419   47.0940 H       1  ZINC000435292384    0.0900
     20 S20         0.6222    4.7954   45.4029 S.3     1  ZINC000435292384   -0.2500
     21 C21         0.7348    6.3518   46.3279 C.3     1  ZINC000435292384   -0.1200
     22 C22         0.9440    3.2909   47.6728 C.3     1  ZINC000435292384    0.1400
     23 C23        -2.3054    2.3067   50.6339 C.3     1  ZINC000435292384   -0.1400
     24 C24        -3.0477    2.5411   51.9311 C.2     1  ZINC000435292384    0.5200
     25 O25        -4.1571    2.1205   52.1824 O.2     1  ZINC000435292384   -0.5200
     26 H26        -6.3686    4.5229   55.8933 H       1  ZINC000435292384    0.0500
     27 H27        -6.2370    4.8716   54.1528 H       1  ZINC000435292384    0.0500
     28 H28        -5.5497    3.3686   54.8139 H       1  ZINC000435292384    0.0500
     29 H29        -4.5919    6.1956   55.4525 H       1  ZINC000435292384    0.0600
     30 H30        -3.9045    4.6926   56.1136 H       1  ZINC000435292384    0.0600
     31 H31        -4.1407    4.9857   53.1227 H       1  ZINC000435292384    0.0800
     32 H32        -2.8306    5.8461   53.9662 H       1  ZINC000435292384    0.0800
     33 H33        -0.8595    4.6966   54.5386 H       1  ZINC000435292384    0.0700
     34 H34        -1.7925    4.2220   55.9782 H       1  ZINC000435292384    0.0700
     35 H35        -0.9133    2.9901   55.0414 H       1  ZINC000435292384    0.0600
     36 H36        -1.0346    4.6693   51.7914 H       1  ZINC000435292384    0.0900
     37 H37        -0.2071    3.5090   52.8727 H       1  ZINC000435292384    0.0800
     38 H38         1.1149    0.7001   49.1334 H       1  ZINC000435292384    0.0700
     39 H39        -0.5924    0.8870   49.5743 H       1  ZINC000435292384    0.0900
     40 H40         0.6247    0.4743   46.8280 H       1  ZINC000435292384    0.0700
     41 H41        -0.6730   -0.4439   47.6239 H       1  ZINC000435292384    0.0800
     42 H42        -1.9580    0.8250   46.2181 H       1  ZINC000435292384    0.0700
     43 H43        -1.8478    1.9645   47.5817 H       1  ZINC000435292384    0.0600
     44 H44         0.2821    1.9594   45.4537 H       1  ZINC000435292384    0.0800
     45 H45        -1.2669    2.7437   45.1241 H       1  ZINC000435292384    0.0600
     46 H46        -0.2621    6.6606   46.6423 H       1  ZINC000435292384    0.0800
     47 H47         1.3646    6.2080   47.2059 H       1  ZINC000435292384    0.0800
     48 H48         1.1698    7.1223   45.6911 H       1  ZINC000435292384    0.1000
     49 H49         1.4230    4.2000   48.0362 H       1  ZINC000435292384    0.0900
     50 H50         1.6954    2.6378   47.2288 H       1  ZINC000435292384    0.0900
     51 H51        -2.6869    2.9592   49.8484 H       1  ZINC000435292384    0.1100
     52 H52        -2.3855    1.2615   50.3353 H       1  ZINC000435292384    0.1100
@<TRIPOS>BOND
     1     1     2    1
     2     1    26    1
     3     1    27    1
     4     1    28    1
     5     2     3    1
     6     2    29    1
     7     2    30    1
     8     3     4    1
     9     3    31    1
    10     3    32    1
    11     4     5    1
    12     4     6    1
    13     4     7    1
    14     6    33    1
    15     6    34    1
    16     6    35    1
    17     7    24   am
    18     7     8    1
    19     8     9    1
    20     8    36    1
    21     8    37    1
    22     9    10    1
    23     9    11    1
    24     9    23    1
    25    11    12    2
    26    11    13   am
    27    13    22    1
    28    13    14    1
    29    14    15    1
    30    14    38    1
    31    14    39    1
    32    15    16    1
    33    15    40    1
    34    15    41    1
    35    16    17    1
    36    16    42    1
    37    16    43    1
    38    17    18    1
    39    17    44    1
    40    17    45    1
    41    18    19    1
    42    18    20    1
    43    18    22    1
    44    20    21    1
    45    21    46    1
    46    21    47    1
    47    21    48    1
    48    22    49    1
    49    22    50    1
    50    23    24    1
    51    23    51    1
    52    23    52    1
    53    24    25    2
@<TRIPOS>SUBSTRUCTURE
     1 ZINC000435292384        1 TEMP              0 ****  ****    0 ROOT


##########                                Name:    ZINC000279974681
##########                DOCK_Rotatable_Bonds:                   4
##########                         Heavy_Atoms:                  23
##########                    Molecular_Weight:              338.79
##########                DOCK_Rotatable_Bonds:                   4
##########                       Formal_Charge:           0.0100008
##########                     HBond_Acceptors:                   7
##########                        HBond_Donors:                   1
##########                         Heavy_Atoms:                  23
##########                          Grid_Score:          -26.344086
##########                     Grid_vdw_energy:          -24.808170
##########                      Grid_es_energy:           -1.535915
##########           Internal_energy_repulsive:           10.330063

@<TRIPOS>MOLECULE
ZINC000279974681
 42 45 1 0 0
SMALL
USER_CHARGES


@<TRIPOS>ATOM
      1 C1         -2.2408    4.9697   54.2276 C.3     1  ZINC000279974681   -0.1400
      2 C2         -2.7339    4.2102   52.9943 C.3     1  ZINC000279974681    0.0700
      3 H3         -3.4267    4.8376   52.4334 H       1  ZINC000279974681    0.0600
      4 C4         -3.4470    2.9266   53.4346 C.3     1  ZINC000279974681    0.1000
      5 N5         -3.7439    2.1263   52.2360 N.am    1  ZINC000279974681   -0.6300
      6 C6         -4.9828    1.6447   52.0128 C.2     1  ZINC000279974681    0.7100
      7 O7         -5.2083    0.9852   51.0164 O.2     1  ZINC000279974681   -0.5600
      8 N8         -5.9716    1.8939   52.8941 N.am    1  ZINC000279974681   -0.6700
      9 C9         -7.2603    1.3928   52.6618 C.ar    1  ZINC000279974681    0.2000
     10 C10        -7.4757    0.0226   52.6233 C.ar    1  ZINC000279974681   -0.1200
     11 C11        -8.7490   -0.4720   52.3943 C.ar    1  ZINC000279974681    0.0700
     12 C12        -9.8116    0.4074   52.2028 C.ar    1  ZINC000279974681    0.0200
     13 C13        -9.5930    1.7752   52.2412 C.ar    1  ZINC000279974681   -0.0700
     14 C14        -8.3228    2.2682   52.4757 C.ar    1  ZINC000279974681   -0.0700
     15 Cl15       -8.0529    3.9824   52.5231 Cl      1  ZINC000279974681   -0.0500
     16 O16       -10.9490   -0.3210   51.9982 O.3     1  ZINC000279974681   -0.3000
     17 C17       -10.5007   -1.6468   51.6601 C.3     1  ZINC000279974681    0.2100
     18 O18        -9.2200   -1.7508   52.3099 O.3     1  ZINC000279974681   -0.3000
     19 C19        -2.6486    1.8677   51.2881 C.3     1  ZINC000279974681    0.0800
     20 C20        -1.9744    3.2030   50.9524 C.3     1  ZINC000279974681    0.1100
     21 H21        -2.6642    3.8262   50.3832 H       1  ZINC000279974681    0.0700
     22 C22        -0.7151    2.9452   50.1226 C.3     1  ZINC000279974681   -0.1600
     23 C23         0.5715    3.6527   50.5527 C.3     1  ZINC000279974681   -0.1700
     24 C24         0.4133    2.1480   50.7801 C.3     1  ZINC000279974681   -0.1600
     25 O25        -1.6195    3.8704   52.1658 O.3     1  ZINC000279974681   -0.3600
     26 H26        -1.7324    5.8813   53.9138 H       1  ZINC000279974681    0.0700
     27 H27        -3.0908    5.2269   54.8598 H       1  ZINC000279974681    0.0800
     28 H28        -1.5482    4.3418   54.7881 H       1  ZINC000279974681    0.0700
     29 H29        -2.8009    2.3590   54.1042 H       1  ZINC000279974681    0.0800
     30 H30        -4.3755    3.1797   53.9464 H       1  ZINC000279974681    0.1100
     31 H31        -5.7916    2.4199   53.6889 H       1  ZINC000279974681    0.4100
     32 H32        -6.6504   -0.6582   52.7717 H       1  ZINC000279974681    0.1800
     33 H33       -10.4171    2.4572   52.0924 H       1  ZINC000279974681    0.1500
     34 H34       -11.1902   -2.3953   52.0503 H       1  ZINC000279974681    0.1400
     35 H35       -10.3919   -1.7505   50.5804 H       1  ZINC000279974681    0.0900
     36 H36        -1.9221    1.1934   51.7415 H       1  ZINC000279974681    0.0900
     37 H37        -3.0484    1.4195   50.3785 H       1  ZINC000279974681    0.0900
     38 H38        -0.8773    2.8005   49.0545 H       1  ZINC000279974681    0.1100
     39 H39         1.2560    3.9737   49.7675 H       1  ZINC000279974681    0.1000
     40 H40         0.5209    4.3018   51.4269 H       1  ZINC000279974681    0.1000
     41 H41         0.2584    1.8072   51.8039 H       1  ZINC000279974681    0.1000
     42 H42         0.9935    1.4791   50.1445 H       1  ZINC000279974681    0.1000
@<TRIPOS>BOND
     1     1     2    1
     2     1    26    1
     3     1    27    1
     4     1    28    1
     5     2     3    1
     6     2    25    1
     7     2     4    1
     8     4     5    1
     9     4    29    1
    10     4    30    1
    11     5     6   am
    12     5    19    1
    13     6     7    2
    14     6     8   am
    15     8     9    1
    16     8    31    1
    17     9    14   ar
    18     9    10   ar
    19    10    11   ar
    20    10    32    1
    21    11    18    1
    22    11    12   ar
    23    12    13   ar
    24    12    16    1
    25    13    14   ar
    26    13    33    1
    27    14    15    1
    28    16    17    1
    29    17    18    1
    30    17    34    1
    31    17    35    1
    32    19    20    1
    33    19    36    1
    34    19    37    1
    35    20    21    1
    36    20    22    1
    37    20    25    1
    38    22    24    1
    39    22    23    1
    40    22    38    1
    41    23    24    1
    42    23    39    1
    43    23    40    1
    44    24    41    1
    45    24    42    1
@<TRIPOS>SUBSTRUCTURE
     1 ZINC000279974681        1 TEMP              0 ****  ****    0 ROOT


##########                                Name:    ZINC000496437542
##########                DOCK_Rotatable_Bonds:                   7
##########                         Heavy_Atoms:                  24
##########                    Molecular_Weight:             338.447
##########                DOCK_Rotatable_Bonds:                   7
##########                       Formal_Charge:           0.0400002
##########                     HBond_Acceptors:                   6
##########                        HBond_Donors:                   1
##########                         Heavy_Atoms:                  24
##########                          Grid_Score:          -26.317940
##########                     Grid_vdw_energy:          -24.902365
##########                      Grid_es_energy:           -1.415576
##########           Internal_energy_repulsive:           22.322884

@<TRIPOS>MOLECULE
ZINC000496437542
 54 55 1 0 0
SMALL
USER_CHARGES


@<TRIPOS>ATOM
      1 C1        -10.1031   -2.2850   52.6627 C.3     1  ZINC000496437542   -0.1800
      2 C2        -10.4886   -0.8102   52.7950 C.3     1  ZINC000496437542    0.1400
      3 C3        -11.9549   -0.6288   52.3978 C.3     1  ZINC000496437542   -0.1800
      4 C4        -10.2934   -0.3602   54.2443 C.3     1  ZINC000496437542   -0.1400
      5 O5         -9.6481   -0.0101   51.9224 O.3     1  ZINC000496437542   -0.3600
      6 C6         -8.3899    0.2297   52.3370 C.2     1  ZINC000496437542    0.6600
      7 O7         -7.7048   -0.6815   52.7577 O.2     1  ZINC000496437542   -0.5600
      8 N8         -7.8902    1.4803   52.2857 N.am    1  ZINC000496437542   -0.6000
      9 C9         -8.7008    2.5996   51.7803 C.3     1  ZINC000496437542    0.0800
     10 C10        -8.6415    3.7400   52.8031 C.3     1  ZINC000496437542    0.0500
     11 O11        -7.2747    4.0313   53.1045 O.3     1  ZINC000496437542   -0.3700
     12 C12        -6.5652    2.9479   53.7101 C.3     1  ZINC000496437542    0.0700
     13 H13        -7.0754    2.6444   54.6243 H       1  ZINC000496437542    0.0700
     14 C14        -5.1401    3.3934   54.0440 C.3     1  ZINC000496437542    0.1300
     15 N15        -4.2553    3.0840   52.9181 N.am    1  ZINC000496437542   -0.7200
     16 C16        -3.2530    3.9261   52.5975 C.2     1  ZINC000496437542    0.5600
     17 O17        -3.0823    4.9421   53.2438 O.2     1  ZINC000496437542   -0.5400
     18 C18        -2.3656    3.6164   51.4660 C.2     1  ZINC000496437542   -0.1900
     19 C19        -2.1073    4.5392   50.5646 C.2     1  ZINC000496437542   -0.0600
     20 C20        -1.1957    4.2311   49.3956 C.3     1  ZINC000496437542   -0.1000
     21 C21         0.2404    4.1216   49.9131 C.3     1  ZINC000496437542   -0.1100
     22 C22         0.5273    2.7182   50.4146 C.3     1  ZINC000496437542   -0.1200
     23 C23        -0.2584    2.3377   51.6562 C.3     1  ZINC000496437542   -0.1200
     24 C24        -1.7486    2.2389   51.3472 C.3     1  ZINC000496437542   -0.0800
     25 C25        -6.5201    1.7680   52.7391 C.3     1  ZINC000496437542    0.1000
     26 H26       -10.2422   -2.6057   51.6303 H       1  ZINC000496437542    0.0900
     27 H27        -9.0585   -2.4143   52.9458 H       1  ZINC000496437542    0.0600
     28 H28       -10.7341   -2.8857   53.3179 H       1  ZINC000496437542    0.0700
     29 H29       -12.5859   -1.2294   53.0529 H       1  ZINC000496437542    0.0700
     30 H30       -12.2296    0.4219   52.4922 H       1  ZINC000496437542    0.0600
     31 H31       -12.0940   -0.9494   51.3653 H       1  ZINC000496437542    0.0900
     32 H32        -9.2487   -0.4895   54.5273 H       1  ZINC000496437542    0.0700
     33 H33       -10.5680    0.6904   54.3386 H       1  ZINC000496437542    0.0700
     34 H34       -10.9243   -0.9609   54.8994 H       1  ZINC000496437542    0.0800
     35 H35        -8.3003    2.9413   50.8258 H       1  ZINC000496437542    0.0800
     36 H36        -9.7336    2.2760   51.6509 H       1  ZINC000496437542    0.1000
     37 H37        -9.1196    4.6271   52.3875 H       1  ZINC000496437542    0.1100
     38 H38        -9.1591    3.4395   53.7139 H       1  ZINC000496437542    0.0600
     39 H39        -5.1294    4.4674   54.2301 H       1  ZINC000496437542    0.0900
     40 H40        -4.7939    2.8671   54.9335 H       1  ZINC000496437542    0.0800
     41 H41        -4.3907    2.2731   52.4034 H       1  ZINC000496437542    0.4000
     42 H42        -2.5477    5.5209   50.6587 H       1  ZINC000496437542    0.1300
     43 H43        -1.4930    3.2873   48.9385 H       1  ZINC000496437542    0.0800
     44 H44        -1.2597    5.0330   48.6602 H       1  ZINC000496437542    0.0800
     45 H45         0.9318    4.3622   49.1055 H       1  ZINC000496437542    0.0700
     46 H46         0.3826    4.8301   50.7291 H       1  ZINC000496437542    0.0700
     47 H47         0.2886    2.0097   49.6213 H       1  ZINC000496437542    0.0600
     48 H48         1.5911    2.6394   50.6385 H       1  ZINC000496437542    0.0600
     49 H49         0.0967    1.3751   52.0244 H       1  ZINC000496437542    0.0700
     50 H50        -0.1027    3.0945   52.4250 H       1  ZINC000496437542    0.0600
     51 H51        -2.2255    1.5625   52.0567 H       1  ZINC000496437542    0.0700
     52 H52        -1.8881    1.8666   50.3322 H       1  ZINC000496437542    0.0800
     53 H53        -6.1073    0.8937   53.2426 H       1  ZINC000496437542    0.1100
     54 H54        -5.9009    2.0235   51.8793 H       1  ZINC000496437542    0.0900
@<TRIPOS>BOND
     1     1     2    1
     2     1    26    1
     3     1    27    1
     4     1    28    1
     5     2     3    1
     6     2     4    1
     7     2     5    1
     8     3    29    1
     9     3    30    1
    10     3    31    1
    11     4    32    1
    12     4    33    1
    13     4    34    1
    14     5     6    1
    15     6     7    2
    16     6     8   am
    17     8    25    1
    18     8     9    1
    19     9    10    1
    20     9    35    1
    21     9    36    1
    22    10    11    1
    23    10    37    1
    24    10    38    1
    25    11    12    1
    26    12    13    1
    27    12    14    1
    28    12    25    1
    29    14    15    1
    30    14    39    1
    31    14    40    1
    32    15    16   am
    33    15    41    1
    34    16    17    2
    35    16    18    1
    36    18    24    1
    37    18    19    2
    38    19    20    1
    39    19    42    1
    40    20    21    1
    41    20    43    1
    42    20    44    1
    43    21    22    1
    44    21    45    1
    45    21    46    1
    46    22    23    1
    47    22    47    1
    48    22    48    1
    49    23    24    1
    50    23    49    1
    51    23    50    1
    52    24    51    1
    53    24    52    1
    54    25    53    1
    55    25    54    1
@<TRIPOS>SUBSTRUCTURE
     1 ZINC000496437542        1 TEMP              0 ****  ****    0 ROOT


##########                                Name:    ZINC000345028113
##########                DOCK_Rotatable_Bonds:                   5
##########                         Heavy_Atoms:                  21
##########                    Molecular_Weight:             331.838
##########                DOCK_Rotatable_Bonds:                   5
##########                       Formal_Charge:         4.47035e-07
##########                     HBond_Acceptors:                   6
##########                        HBond_Donors:                   0
##########                         Heavy_Atoms:                  21
##########                          Grid_Score:          -26.307159
##########                     Grid_vdw_energy:          -26.593470
##########                      Grid_es_energy:            0.286310
##########           Internal_energy_repulsive:           16.078688

@<TRIPOS>MOLECULE
ZINC000345028113
 40 41 1 0 0
SMALL
USER_CHARGES


@<TRIPOS>ATOM
      1 C1        -13.5646   -5.0303   55.4419 C.3     1  ZINC000345028113   -0.1700
      2 C2        -12.8717   -3.7768   54.9035 C.3     1  ZINC000345028113    0.1400
      3 H3        -11.9492   -4.0608   54.3972 H       1  ZINC000345028113    0.1100
      4 C4        -12.5465   -2.8337   56.0667 C.3     1  ZINC000345028113   -0.0700
      5 H5        -12.0189   -1.9575   55.6899 H       1  ZINC000345028113    0.0900
      6 C6        -11.6688   -3.5614   57.0870 C.3     1  ZINC000345028113   -0.1400
      7 S7        -14.1009   -2.3170   56.8539 S.3     1  ZINC000345028113   -0.2400
      8 C8        -15.0407   -1.6446   55.4512 C.3     1  ZINC000345028113   -0.1100
      9 C9        -15.1135   -2.7081   54.3504 C.3     1  ZINC000345028113    0.1000
     10 N10       -13.7583   -3.0976   53.9574 N.am    1  ZINC000345028113   -0.6100
     11 C11       -13.3222   -2.8279   52.7110 C.2     1  ZINC000345028113    0.5200
     12 O12       -14.0520   -2.2668   51.9214 O.2     1  ZINC000345028113   -0.5300
     13 C13       -11.9279   -3.2237   52.2984 C.3     1  ZINC000345028113   -0.1400
     14 C14       -10.9117   -2.3311   53.0135 C.3     1  ZINC000345028113    0.0700
     15 O15       -10.1606   -1.5947   52.0462 O.3     1  ZINC000345028113   -0.3000
     16 C16        -9.4716   -0.5114   52.4940 C.ar    1  ZINC000345028113    0.1300
     17 C17       -10.1539    0.5857   52.9969 C.ar    1  ZINC000345028113   -0.1700
     18 C18        -9.4524    1.6860   53.4522 C.ar    1  ZINC000345028113   -0.1100
     19 C19        -8.0689    1.6936   53.4065 C.ar    1  ZINC000345028113    0.0800
     20 F20        -7.3849    2.7699   53.8524 F       1  ZINC000345028113   -0.1300
     21 C21        -7.3853    0.5988   52.9046 C.ar    1  ZINC000345028113   -0.1100
     22 C22        -8.0839   -0.5052   52.4534 C.ar    1  ZINC000345028113   -0.0400
     23 Cl23       -7.2270   -1.8777   51.8242 Cl      1  ZINC000345028113   -0.0400
     24 H24       -13.7959   -5.7012   54.6146 H       1  ZINC000345028113    0.0600
     25 H25       -12.9044   -5.5361   56.1463 H       1  ZINC000345028113    0.0800
     26 H26       -14.4871   -4.7463   55.9482 H       1  ZINC000345028113    0.0800
     27 H27       -10.7425   -3.8792   56.6082 H       1  ZINC000345028113    0.0800
     28 H28       -11.4385   -2.8889   57.9133 H       1  ZINC000345028113    0.0700
     29 H29       -12.2000   -4.4344   57.4660 H       1  ZINC000345028113    0.0700
     30 H30       -16.0484   -1.3863   55.7768 H       1  ZINC000345028113    0.1200
     31 H31       -14.5394   -0.7558   55.0679 H       1  ZINC000345028113    0.0900
     32 H32       -15.6485   -3.5813   54.7236 H       1  ZINC000345028113    0.0900
     33 H33       -15.6395   -2.3015   53.4866 H       1  ZINC000345028113    0.1000
     34 H34       -11.7507   -4.2647   52.5688 H       1  ZINC000345028113    0.1100
     35 H35       -11.8205   -3.1051   51.2202 H       1  ZINC000345028113    0.1100
     36 H36       -11.4364   -1.6376   53.6708 H       1  ZINC000345028113    0.0800
     37 H37       -10.2360   -2.9502   53.6037 H       1  ZINC000345028113    0.0800
     38 H38       -11.2332    0.5807   53.0325 H       1  ZINC000345028113    0.1500
     39 H39        -9.9840    2.5407   53.8436 H       1  ZINC000345028113    0.1500
     40 H40        -6.3058    0.6062   52.8693 H       1  ZINC000345028113    0.1500
@<TRIPOS>BOND
     1     1     2    1
     2     1    24    1
     3     1    25    1
     4     1    26    1
     5     2     3    1
     6     2    10    1
     7     2     4    1
     8     4     5    1
     9     4     6    1
    10     4     7    1
    11     6    27    1
    12     6    28    1
    13     6    29    1
    14     7     8    1
    15     8     9    1
    16     8    30    1
    17     8    31    1
    18     9    10    1
    19     9    32    1
    20     9    33    1
    21    10    11   am
    22    11    12    2
    23    11    13    1
    24    13    14    1
    25    13    34    1
    26    13    35    1
    27    14    15    1
    28    14    36    1
    29    14    37    1
    30    15    16    1
    31    16    22   ar
    32    16    17   ar
    33    17    18   ar
    34    17    38    1
    35    18    19   ar
    36    18    39    1
    37    19    20    1
    38    19    21   ar
    39    21    22   ar
    40    21    40    1
    41    22    23    1
@<TRIPOS>SUBSTRUCTURE
     1 ZINC000345028113        1 TEMP              0 ****  ****    0 ROOT


##########                                Name:    ZINC000965273005
##########                DOCK_Rotatable_Bonds:                   7
##########                         Heavy_Atoms:                  27
##########                    Molecular_Weight:             368.436
##########                DOCK_Rotatable_Bonds:                   7
##########                       Formal_Charge:           0.0100003
##########                     HBond_Acceptors:                   7
##########                        HBond_Donors:                   2
##########                         Heavy_Atoms:                  27
##########                          Grid_Score:          -26.305819
##########                     Grid_vdw_energy:          -26.362341
##########                      Grid_es_energy:            0.056522
##########           Internal_energy_repulsive:            8.284352

@<TRIPOS>MOLECULE
ZINC000965273005
 51 54 1 0 0
SMALL
USER_CHARGES


@<TRIPOS>ATOM
      1 C1         -8.8214   -1.2768   59.2036 C.3     1  ZINC000965273005   -0.1200
      2 C2        -10.0380   -1.1384   60.0819 C.ar    1  ZINC000965273005   -0.0300
      3 C3        -10.1188   -0.1061   60.9934 C.ar    1  ZINC000965273005   -0.1200
      4 C4        -11.2353    0.0224   61.8006 C.ar    1  ZINC000965273005   -0.0900
      5 C5        -12.2774   -0.8818   61.6994 C.ar    1  ZINC000965273005   -0.1300
      6 C6        -12.2093   -1.9189   60.7918 C.ar    1  ZINC000965273005   -0.0900
      7 C7        -11.0884   -2.0511   59.9710 C.ar    1  ZINC000965273005   -0.1300
      8 C8        -11.0086   -3.1600   58.9964 C.2     1  ZINC000965273005    0.5800
      9 O9        -10.3808   -4.1645   59.2688 O.2     1  ZINC000965273005   -0.5200
     10 N10       -11.6319   -3.0569   57.8059 N.am    1  ZINC000965273005   -0.6100
     11 C11       -12.4185   -1.8981   57.3454 C.3     1  ZINC000965273005    0.0900
     12 C12       -12.3791   -1.9813   55.7991 C.3     1  ZINC000965273005    0.1500
     13 H13       -13.2401   -1.4784   55.3587 H       1  ZINC000965273005    0.1200
     14 N14       -11.1274   -1.4291   55.2751 N.am    1  ZINC000965273005   -0.7100
     15 C15       -11.0667   -0.1365   54.8985 C.2     1  ZINC000965273005    0.6000
     16 O16       -12.0513    0.5711   54.9920 O.2     1  ZINC000965273005   -0.5400
     17 C17        -9.8066    0.4197   54.3728 C.2     1  ZINC000965273005   -0.2800
     18 C18        -8.9741   -0.1720   53.4443 C.2     1  ZINC000965273005    0.1000
     19 N19        -7.9409    0.6613   53.2421 N.pl3   1  ZINC000965273005   -0.3600
     20 C20        -6.8180    0.4273   52.3308 C.3     1  ZINC000965273005    0.1000
     21 N21        -8.1179    1.7913   54.0482 N.2     1  ZINC000965273005   -0.3000
     22 C22        -9.2280    1.6609   54.7208 C.2     1  ZINC000965273005    0.1700
     23 C23        -9.7896    2.6550   55.7043 C.3     1  ZINC000965273005   -0.0800
     24 C24        -9.6395    2.3375   57.1934 C.3     1  ZINC000965273005   -0.1700
     25 C25        -8.7944    3.4434   56.5581 C.3     1  ZINC000965273005   -0.1600
     26 C26       -12.4517   -3.5139   55.5677 C.3     1  ZINC000965273005    0.0900
     27 H27       -13.4841   -3.8613   55.6070 H       1  ZINC000965273005    0.0900
     28 O28       -11.8487   -3.8661   54.3210 O.3     1  ZINC000965273005   -0.5500
     29 C29       -11.6349   -4.0787   56.7488 C.3     1  ZINC000965273005    0.0600
     30 H30        -9.0090   -0.7946   58.2443 H       1  ZINC000965273005    0.0800
     31 H31        -7.9677   -0.8026   59.6879 H       1  ZINC000965273005    0.0700
     32 H32        -8.6072   -2.3335   59.0434 H       1  ZINC000965273005    0.0700
     33 H33        -9.3086    0.6031   61.0773 H       1  ZINC000965273005    0.1300
     34 H34       -11.2933    0.8320   62.5130 H       1  ZINC000965273005    0.1300
     35 H35       -13.1461   -0.7759   62.3324 H       1  ZINC000965273005    0.1300
     36 H36       -13.0234   -2.6243   60.7141 H       1  ZINC000965273005    0.1300
     37 H37       -13.4455   -1.9703   57.7032 H       1  ZINC000965273005    0.0900
     38 H38       -11.9613   -0.9694   57.6870 H       1  ZINC000965273005    0.0900
     39 H39       -10.3423   -1.9937   55.1993 H       1  ZINC000965273005    0.4000
     40 H40        -9.1255   -1.1295   52.9683 H       1  ZINC000965273005    0.1800
     41 H41        -7.0588    0.8291   51.3466 H       1  ZINC000965273005    0.0800
     42 H42        -5.9271    0.9222   52.7173 H       1  ZINC000965273005    0.1000
     43 H43        -6.6325   -0.6438   52.2505 H       1  ZINC000965273005    0.0900
     44 H44       -10.6979    3.1678   55.3878 H       1  ZINC000965273005    0.1400
     45 H45       -10.4492    2.6411   57.8570 H       1  ZINC000965273005    0.1000
     46 H46        -9.1344    1.4095   57.4617 H       1  ZINC000965273005    0.1000
     47 H47        -7.7335    3.2430   56.4085 H       1  ZINC000965273005    0.0900
     48 H48        -9.0482    4.4746   56.8037 H       1  ZINC000965273005    0.1000
     49 H49       -12.0111   -4.7799   54.0498 H       1  ZINC000965273005    0.3900
     50 H50       -10.6149   -4.2891   56.4271 H       1  ZINC000965273005    0.0800
     51 H51       -12.1035   -4.9894   57.1218 H       1  ZINC000965273005    0.0800
@<TRIPOS>BOND
     1     1     2    1
     2     1    30    1
     3     1    31    1
     4     1    32    1
     5     2     7   ar
     6     2     3   ar
     7     3     4   ar
     8     3    33    1
     9     4     5   ar
    10     4    34    1
    11     5     6   ar
    12     5    35    1
    13     6     7   ar
    14     6    36    1
    15     7     8    1
    16     8     9    2
    17     8    10   am
    18    10    29    1
    19    10    11    1
    20    11    12    1
    21    11    37    1
    22    11    38    1
    23    12    13    1
    24    12    14    1
    25    12    26    1
    26    14    15   am
    27    14    39    1
    28    15    16    2
    29    15    17    1
    30    17    22    1
    31    17    18    2
    32    18    19    1
    33    18    40    1
    34    19    20    1
    35    19    21    1
    36    20    41    1
    37    20    42    1
    38    20    43    1
    39    21    22    2
    40    22    23    1
    41    23    25    1
    42    23    24    1
    43    23    44    1
    44    24    25    1
    45    24    45    1
    46    24    46    1
    47    25    47    1
    48    25    48    1
    49    26    27    1
    50    26    28    1
    51    26    29    1
    52    28    49    1
    53    29    50    1
    54    29    51    1
@<TRIPOS>SUBSTRUCTURE
     1 ZINC000965273005        1 TEMP              0 ****  ****    0 ROOT


##########                                Name:    ZINC000966038509
##########                DOCK_Rotatable_Bonds:                   5
##########                         Heavy_Atoms:                  25
##########                    Molecular_Weight:             346.445
##########                DOCK_Rotatable_Bonds:                   5
##########                       Formal_Charge:           0.0299998
##########                     HBond_Acceptors:                   5
##########                        HBond_Donors:                   1
##########                         Heavy_Atoms:                  25
##########                          Grid_Score:          -26.270821
##########                     Grid_vdw_energy:          -25.266592
##########                      Grid_es_energy:           -1.004229
##########           Internal_energy_repulsive:           17.410534

@<TRIPOS>MOLECULE
ZINC000966038509
 52 54 1 0 0
SMALL
USER_CHARGES


@<TRIPOS>ATOM
      1 C1         -5.4584    4.6403   53.6886 C.3     1  ZINC000966038509   -0.1200
      2 C2         -5.1788    3.3314   52.9958 C.ar    1  ZINC000966038509   -0.0100
      3 C3         -3.8893    3.0012   52.6382 C.ar    1  ZINC000966038509   -0.1600
      4 C4         -3.6308    1.7975   52.0003 C.ar    1  ZINC000966038509    0.1300
      5 F5         -2.3651    1.4789   51.6515 F       1  ZINC000966038509   -0.1300
      6 C6         -4.6665    0.9195   51.7196 C.ar    1  ZINC000966038509   -0.1600
      7 C7         -5.9598    1.2398   52.0729 C.ar    1  ZINC000966038509   -0.0100
      8 C8         -7.0845    0.2847   51.7666 C.3     1  ZINC000966038509   -0.1200
      9 C9         -6.2251    2.4484   52.7203 C.ar    1  ZINC000966038509   -0.1500
     10 C10        -7.6090    2.7970   53.1013 C.2     1  ZINC000966038509    0.5700
     11 O11        -8.2489    3.5756   52.4213 O.2     1  ZINC000966038509   -0.5200
     12 N12        -8.1625    2.2520   54.2027 N.am    1  ZINC000966038509   -0.7100
     13 C13        -9.5356    2.5964   54.5796 C.3     1  ZINC000966038509    0.1300
     14 H14        -9.6639    3.6774   54.6349 H       1  ZINC000966038509    0.1200
     15 C15       -10.5554    1.9657   53.5987 C.3     1  ZINC000966038509    0.0900
     16 N16       -10.7040    0.5713   54.0539 N.am    1  ZINC000966038509   -0.6200
     17 C17       -11.1009   -0.4660   53.2904 C.2     1  ZINC000966038509    0.5400
     18 O18       -11.3717   -0.2900   52.1214 O.2     1  ZINC000966038509   -0.5300
     19 C19       -11.2082   -1.8447   53.8894 C.3     1  ZINC000966038509   -0.1100
     20 C20       -12.6798   -2.1658   54.2506 C.3     1  ZINC000966038509   -0.1100
     21 C21       -12.7016   -3.7145   54.2512 C.3     1  ZINC000966038509   -0.1200
     22 C22       -11.7815   -4.1062   53.0764 C.3     1  ZINC000966038509   -0.1200
     23 C23       -10.8320   -2.9173   52.8464 C.3     1  ZINC000966038509   -0.1100
     24 C24       -10.3467    0.4997   55.4782 C.3     1  ZINC000966038509    0.1000
     25 C25        -9.9310    1.9202   55.9189 C.3     1  ZINC000966038509   -0.1100
     26 H26       -10.7692    2.4412   56.3816 H       1  ZINC000966038509    0.1000
     27 C27        -8.7376    1.8629   56.8747 C.3     1  ZINC000966038509   -0.1400
     28 H28        -5.3842    4.5034   54.7674 H       1  ZINC000966038509    0.0800
     29 H29        -4.7307    5.3849   53.3658 H       1  ZINC000966038509    0.0800
     30 H30        -6.4625    4.9791   53.4335 H       1  ZINC000966038509    0.0700
     31 H31        -3.0789    3.6814   52.8548 H       1  ZINC000966038509    0.1400
     32 H32        -4.4597   -0.0169   51.2228 H       1  ZINC000966038509    0.1400
     33 H33        -7.2189   -0.3991   52.6047 H       1  ZINC000966038509    0.0800
     34 H34        -8.0045    0.8466   51.6050 H       1  ZINC000966038509    0.0700
     35 H35        -6.8438   -0.2841   50.8685 H       1  ZINC000966038509    0.0800
     36 H36        -7.6515    1.6318   54.7459 H       1  ZINC000966038509    0.4000
     37 H37       -11.5104    2.4876   53.6570 H       1  ZINC000966038509    0.0800
     38 H38       -10.1687    1.9930   52.5800 H       1  ZINC000966038509    0.0800
     39 H39       -10.5705   -1.9280   54.7695 H       1  ZINC000966038509    0.0900
     40 H40       -12.9294   -1.7756   55.2374 H       1  ZINC000966038509    0.0700
     41 H41       -13.3583   -1.7701   53.4948 H       1  ZINC000966038509    0.0700
     42 H42       -12.3065   -4.1013   55.1905 H       1  ZINC000966038509    0.0700
     43 H43       -13.7138   -4.0819   54.0819 H       1  ZINC000966038509    0.0700
     44 H44       -11.2086   -4.9975   53.3320 H       1  ZINC000966038509    0.0700
     45 H45       -12.3760   -4.2878   52.1810 H       1  ZINC000966038509    0.0700
     46 H46       -10.9658   -2.5220   51.8395 H       1  ZINC000966038509    0.0800
     47 H47        -9.7984   -3.2317   52.9904 H       1  ZINC000966038509    0.0700
     48 H48       -11.2067    0.1680   56.0599 H       1  ZINC000966038509    0.0800
     49 H49        -9.5142   -0.1900   55.6173 H       1  ZINC000966038509    0.0700
     50 H50        -7.9018    1.3654   56.3827 H       1  ZINC000966038509    0.0600
     51 H51        -8.4454    2.8757   57.1520 H       1  ZINC000966038509    0.0700
     52 H52        -9.0155    1.3069   57.7700 H       1  ZINC000966038509    0.0700
@<TRIPOS>BOND
     1     1     2    1
     2     1    28    1
     3     1    29    1
     4     1    30    1
     5     2     9   ar
     6     2     3   ar
     7     3     4   ar
     8     3    31    1
     9     4     5    1
    10     4     6   ar
    11     6     7   ar
    12     6    32    1
    13     7     8    1
    14     7     9   ar
    15     8    33    1
    16     8    34    1
    17     8    35    1
    18     9    10    1
    19    10    11    2
    20    10    12   am
    21    12    13    1
    22    12    36    1
    23    13    14    1
    24    13    25    1
    25    13    15    1
    26    15    16    1
    27    15    37    1
    28    15    38    1
    29    16    17   am
    30    16    24    1
    31    17    18    2
    32    17    19    1
    33    19    23    1
    34    19    20    1
    35    19    39    1
    36    20    21    1
    37    20    40    1
    38    20    41    1
    39    21    22    1
    40    21    42    1
    41    21    43    1
    42    22    23    1
    43    22    44    1
    44    22    45    1
    45    23    46    1
    46    23    47    1
    47    24    25    1
    48    24    48    1
    49    24    49    1
    50    25    26    1
    51    25    27    1
    52    27    50    1
    53    27    51    1
    54    27    52    1
@<TRIPOS>SUBSTRUCTURE
     1 ZINC000966038509        1 TEMP              0 ****  ****    0 ROOT


##########                                Name:    ZINC000863208514
##########                DOCK_Rotatable_Bonds:                   6
##########                         Heavy_Atoms:                  19
##########                    Molecular_Weight:             368.657
##########                DOCK_Rotatable_Bonds:                   6
##########                       Formal_Charge:           0.0100005
##########                     HBond_Acceptors:                   7
##########                        HBond_Donors:                   2
##########                         Heavy_Atoms:                  19
##########                          Grid_Score:          -26.216835
##########                     Grid_vdw_energy:          -25.713182
##########                      Grid_es_energy:           -0.503653
##########           Internal_energy_repulsive:            6.727871

@<TRIPOS>MOLECULE
ZINC000863208514
 31 31 1 0 0
SMALL
USER_CHARGES


@<TRIPOS>ATOM
      1 C1        -10.8013   -4.5893   57.6849 C.3     1  ZINC000863208514    0.0900
      2 N2        -10.7784   -3.1253   57.7349 N.am    1  ZINC000863208514   -0.6100
      3 C3        -10.6058   -2.4389   59.0175 C.3     1  ZINC000863208514    0.0700
      4 C4        -10.9163   -2.4101   56.6009 C.2     1  ZINC000863208514    0.5100
      5 O5        -10.8959   -1.1982   56.6421 O.2     1  ZINC000863208514   -0.5400
      6 C6        -11.0958   -3.1163   55.2818 C.3     1  ZINC000863208514    0.1100
      7 N7        -10.5187   -2.3020   54.2094 N.am    1  ZINC000863208514   -0.6600
      8 C8        -10.8030   -2.5831   52.9223 C.2     1  ZINC000863208514    0.5600
      9 S9        -11.8370   -3.8930   52.5405 S.2     1  ZINC000863208514   -0.6000
     10 N10       -10.2733   -1.8329   51.9358 N.am    1  ZINC000863208514   -0.6300
     11 C11        -9.4274   -0.7613   52.2483 C.ar    1  ZINC000863208514    0.1200
     12 C12        -9.9647    0.4698   52.5964 C.ar    1  ZINC000863208514   -0.0300
     13 C13        -9.1274    1.5262   52.9049 C.ar    1  ZINC000863208514   -0.0200
     14 Cl14       -9.7992    3.0663   53.3411 Cl      1  ZINC000863208514   -0.0300
     15 C15        -7.7541    1.3568   52.8668 C.ar    1  ZINC000863208514   -0.0600
     16 Br16       -6.6126    2.8040   53.2894 Br      1  ZINC000863208514   -0.0100
     17 C17        -7.2148    0.1304   52.5205 C.ar    1  ZINC000863208514   -0.1100
     18 C18        -8.0473   -0.9306   52.2157 C.ar    1  ZINC000863208514    0.1100
     19 F19        -7.5206   -2.1279   51.8775 F       1  ZINC000863208514   -0.1200
     20 H20       -10.6764   -4.9892   58.6911 H       1  ZINC000863208514    0.0800
     21 H21       -11.7550   -4.9241   57.2767 H       1  ZINC000863208514    0.0700
     22 H22        -9.9897   -4.9439   57.0495 H       1  ZINC000863208514    0.0700
     23 H23        -9.5437   -2.2801   59.2045 H       1  ZINC000863208514    0.0700
     24 H24       -11.1171   -1.4768   58.9865 H       1  ZINC000863208514    0.0800
     25 H25       -11.0280   -3.0491   59.8159 H       1  ZINC000863208514    0.0800
     26 H26       -10.5923   -4.0825   55.3155 H       1  ZINC000863208514    0.1200
     27 H27       -12.1585   -3.2669   55.0919 H       1  ZINC000863208514    0.1200
     28 H28        -9.9319   -1.5605   54.4257 H       1  ZINC000863208514    0.4100
     29 H29       -10.4779   -2.0352   51.0095 H       1  ZINC000863208514    0.4200
     30 H30       -11.0360    0.6029   52.6261 H       1  ZINC000863208514    0.1800
     31 H31        -6.1430    0.0010   52.4914 H       1  ZINC000863208514    0.1600
@<TRIPOS>BOND
     1     1     2    1
     2     1    20    1
     3     1    21    1
     4     1    22    1
     5     2     3    1
     6     2     4   am
     7     3    23    1
     8     3    24    1
     9     3    25    1
    10     4     5    2
    11     4     6    1
    12     6     7    1
    13     6    26    1
    14     6    27    1
    15     7     8   am
    16     7    28    1
    17     8     9    2
    18     8    10   am
    19    10    11    1
    20    10    29    1
    21    11    18   ar
    22    11    12   ar
    23    12    13   ar
    24    12    30    1
    25    13    14    1
    26    13    15   ar
    27    15    16    1
    28    15    17   ar
    29    17    18   ar
    30    17    31    1
    31    18    19    1
@<TRIPOS>SUBSTRUCTURE
     1 ZINC000863208514        1 TEMP              0 ****  ****    0 ROOT


##########                                Name:    ZINC000854500114
##########                DOCK_Rotatable_Bonds:                   7
##########                         Heavy_Atoms:                  24
##########                    Molecular_Weight:             399.288
##########                DOCK_Rotatable_Bonds:                   7
##########                       Formal_Charge:          -0.0399992
##########                     HBond_Acceptors:                   7
##########                        HBond_Donors:                   2
##########                         Heavy_Atoms:                  24
##########                          Grid_Score:          -26.206762
##########                     Grid_vdw_energy:          -24.431679
##########                      Grid_es_energy:           -1.775083
##########           Internal_energy_repulsive:           74.437408

@<TRIPOS>MOLECULE
ZINC000854500114
 47 49 1 0 0
SMALL
USER_CHARGES


@<TRIPOS>ATOM
      1 O1         -1.6028    4.9894   51.2675 O.2     1  ZINC000854500114   -0.5800
      2 C2         -2.0850    3.8740   51.2714 C.2     1  ZINC000854500114    0.6600
      3 N3         -2.7999    3.4526   52.3334 N.am    1  ZINC000854500114   -0.7100
      4 C4         -2.9907    4.3372   53.4856 C.3     1  ZINC000854500114    0.1600
      5 C5         -4.3160    5.1136   53.3419 C.3     1  ZINC000854500114   -0.1400
      6 C6         -5.3352    4.2790   54.1567 C.3     1  ZINC000854500114   -0.1300
      7 C7         -4.4971    3.8059   55.3702 C.3     1  ZINC000854500114   -0.1300
      8 C8         -3.1059    3.5057   54.7751 C.3     1  ZINC000854500114   -0.1300
      9 O9         -1.9096    3.0611   50.2126 O.3     1  ZINC000854500114   -0.3600
     10 C10        -1.2459    3.6254   49.0511 C.3     1  ZINC000854500114    0.1000
     11 C11        -1.1290    2.5575   47.9616 C.3     1  ZINC000854500114    0.1500
     12 H12        -2.1231    2.2905   47.6034 H       1  ZINC000854500114    0.0900
     13 C13        -0.4378    1.3151   48.5323 C.3     1  ZINC000854500114   -0.1300
     14 C14        -0.1988    0.3067   47.4062 C.3     1  ZINC000854500114   -0.1200
     15 C15         0.7182    0.9271   46.3497 C.3     1  ZINC000854500114   -0.1400
     16 C16         0.0403    2.1651   45.7542 C.3     1  ZINC000854500114    0.0900
     17 N17        -0.3268    3.0779   46.8460 N.am    1  ZINC000854500114   -0.6100
     18 C18         0.0692    4.3661   46.8265 C.2     1  ZINC000854500114    0.5900
     19 O19        -0.2412    5.1115   47.7361 O.2     1  ZINC000854500114   -0.4900
     20 C20         0.8770    4.8706   45.7047 C.2     1  ZINC000854500114   -0.0300
     21 C21         2.2424    4.7237   45.5324 C.2     1  ZINC000854500114   -0.1200
     22 C22         2.5347    5.3689   44.3277 C.2     1  ZINC000854500114    0.0200
     23 Br23        4.2434    5.5208   43.5319 Br      1  ZINC000854500114    0.0400
     24 N24         1.4154    5.8492   43.8480 N.2     1  ZINC000854500114   -0.2400
     25 N25         0.4286    5.5725   44.6221 N.pl3   1  ZINC000854500114   -0.3700
     26 H26        -3.1881    2.5638   52.3350 H       1  ZINC000854500114    0.4000
     27 H27        -2.1558    5.0336   53.5635 H       1  ZINC000854500114    0.0900
     28 H28        -4.2193    6.1144   53.7627 H       1  ZINC000854500114    0.0800
     29 H29        -4.6160    5.1661   52.2953 H       1  ZINC000854500114    0.0700
     30 H30        -6.1701    4.8997   54.4822 H       1  ZINC000854500114    0.0700
     31 H31        -5.6892    3.4274   53.5759 H       1  ZINC000854500114    0.0700
     32 H32        -4.4297    4.5955   56.1185 H       1  ZINC000854500114    0.0700
     33 H33        -4.9292    2.9039   55.8037 H       1  ZINC000854500114    0.0700
     34 H34        -3.0197    2.4440   54.5438 H       1  ZINC000854500114    0.0700
     35 H35        -2.3273    3.7992   55.4793 H       1  ZINC000854500114    0.0800
     36 H36        -1.8265    4.4672   48.6740 H       1  ZINC000854500114    0.1000
     37 H37        -0.2501    3.9679   49.3324 H       1  ZINC000854500114    0.0700
     38 H38         0.5170    1.6005   48.9738 H       1  ZINC000854500114    0.0800
     39 H39        -1.0720    0.8645   49.2957 H       1  ZINC000854500114    0.0900
     40 H40         0.2705   -0.5885   47.8139 H       1  ZINC000854500114    0.0800
     41 H41        -1.1517    0.0406   46.9487 H       1  ZINC000854500114    0.0700
     42 H42         1.6622    1.2161   46.8117 H       1  ZINC000854500114    0.0700
     43 H43         0.9069    0.2002   45.5596 H       1  ZINC000854500114    0.0800
     44 H44         0.7284    2.6669   45.0739 H       1  ZINC000854500114    0.0800
     45 H45        -0.8576    1.8656   45.2138 H       1  ZINC000854500114    0.0800
     46 H46         2.9346    4.2181   46.1892 H       1  ZINC000854500114    0.1700
     47 H47        -0.4938    5.8285   44.4650 H       1  ZINC000854500114    0.4500
@<TRIPOS>BOND
     1     1     2    2
     2     2     3   am
     3     2     9    1
     4     3     4    1
     5     3    26    1
     6     4     8    1
     7     4     5    1
     8     4    27    1
     9     5     6    1
    10     5    28    1
    11     5    29    1
    12     6     7    1
    13     6    30    1
    14     6    31    1
    15     7     8    1
    16     7    32    1
    17     7    33    1
    18     8    34    1
    19     8    35    1
    20     9    10    1
    21    10    11    1
    22    10    36    1
    23    10    37    1
    24    11    12    1
    25    11    17    1
    26    11    13    1
    27    13    14    1
    28    13    38    1
    29    13    39    1
    30    14    15    1
    31    14    40    1
    32    14    41    1
    33    15    16    1
    34    15    42    1
    35    15    43    1
    36    16    17    1
    37    16    44    1
    38    16    45    1
    39    17    18   am
    40    18    19    2
    41    18    20    1
    42    20    25    1
    43    20    21    2
    44    21    22    1
    45    21    46    1
    46    22    23    1
    47    22    24    2
    48    24    25    1
    49    25    47    1
@<TRIPOS>SUBSTRUCTURE
     1 ZINC000854500114        1 TEMP              0 ****  ****    0 ROOT


##########                                Name:    ZINC000375477402
##########                DOCK_Rotatable_Bonds:                   5
##########                         Heavy_Atoms:                  26
##########                    Molecular_Weight:             378.342
##########                DOCK_Rotatable_Bonds:                   5
##########                       Formal_Charge:         -1.2666e-07
##########                     HBond_Acceptors:                   9
##########                        HBond_Donors:                   1
##########                         Heavy_Atoms:                  26
##########                          Grid_Score:          -26.179670
##########                     Grid_vdw_energy:          -25.084303
##########                      Grid_es_energy:           -1.095368
##########           Internal_energy_repulsive:           13.120878

@<TRIPOS>MOLECULE
ZINC000375477402
 45 47 1 0 0
SMALL
USER_CHARGES


@<TRIPOS>ATOM
      1 O1         -2.6865    1.8389   51.9368 O.2     1  ZINC000375477402   -0.5600
      2 C2         -1.9288    2.7511   51.6680 C.2     1  ZINC000375477402    0.7200
      3 N3         -1.8531    3.8253   52.4784 N.am    1  ZINC000375477402   -0.7300
      4 C4         -2.6881    3.8966   53.6801 C.3     1  ZINC000375477402    0.1800
      5 H5         -3.5230    3.2024   53.5841 H       1  ZINC000375477402    0.1500
      6 C6         -1.8643    3.5277   54.8868 C.ar    1  ZINC000375477402   -0.1300
      7 C7         -2.4104    2.7382   55.8813 C.ar    1  ZINC000375477402   -0.0800
      8 C8         -1.6560    2.3989   56.9891 C.ar    1  ZINC000375477402   -0.0900
      9 C9         -0.3541    2.8486   57.1045 C.ar    1  ZINC000375477402   -0.1100
     10 C10         0.1956    3.6394   56.1104 C.ar    1  ZINC000375477402    0.0800
     11 F11         1.4681    4.0793   56.2224 F       1  ZINC000375477402   -0.1200
     12 C12        -0.5591    3.9748   54.9967 C.ar    1  ZINC000375477402    0.1000
     13 F13        -0.0247    4.7466   54.0251 F       1  ZINC000375477402   -0.1100
     14 C14        -3.2247    5.3199   53.8445 C.3     1  ZINC000375477402    0.4400
     15 F15        -4.0211    5.3883   54.9927 F       1  ZINC000375477402   -0.1600
     16 F16        -2.1532    6.2110   53.9664 F       1  ZINC000375477402   -0.1700
     17 F17        -3.9906    5.6618   52.7247 F       1  ZINC000375477402   -0.1800
     18 N18        -1.1606    2.6855   50.5625 N.am    1  ZINC000375477402   -0.6300
     19 C19        -0.1992    3.7132   50.1213 C.3     1  ZINC000375477402    0.1000
     20 C20         0.8205    2.9515   49.2361 C.3     1  ZINC000375477402   -0.1200
     21 C21        -0.0914    1.9239   48.5293 C.3     1  ZINC000375477402   -0.1100
     22 C22        -1.1372    1.5734   49.5985 C.3     1  ZINC000375477402    0.1400
     23 C23        -0.7500    2.5565   47.3097 C.3     1  ZINC000375477402   -0.1100
     24 C24        -1.5968    1.4997   46.5907 C.3     1  ZINC000375477402   -0.1600
     25 C25        -0.7110    0.2998   46.2450 C.3     1  ZINC000375477402    0.0600
     26 O26        -0.1365   -0.2297   47.4417 O.3     1  ZINC000375477402   -0.3800
     27 C27         0.7098    0.6897   48.1376 C.3     1  ZINC000375477402    0.0800
     28 H28        -1.2457    4.5511   52.2660 H       1  ZINC000375477402    0.4000
     29 H29        -3.4275    2.3862   55.7930 H       1  ZINC000375477402    0.1400
     30 H30        -2.0844    1.7822   57.7653 H       1  ZINC000375477402    0.1500
     31 H31         0.2341    2.5832   57.9705 H       1  ZINC000375477402    0.1500
     32 H32        -0.7068    4.4820   49.5387 H       1  ZINC000375477402    0.0700
     33 H33         0.3025    4.1571   50.9811 H       1  ZINC000375477402    0.0700
     34 H34         1.2881    3.6209   48.5142 H       1  ZINC000375477402    0.0900
     35 H35         1.5720    2.4517   49.8473 H       1  ZINC000375477402    0.0800
     36 H36        -0.8593    0.6460   50.0995 H       1  ZINC000375477402    0.0800
     37 H37        -2.1192    1.4690   49.1371 H       1  ZINC000375477402    0.0700
     38 H38        -1.3886    3.3809   47.6269 H       1  ZINC000375477402    0.0700
     39 H39         0.0187    2.9295   46.6329 H       1  ZINC000375477402    0.0700
     40 H40        -2.4086    1.1776   47.2429 H       1  ZINC000375477402    0.0700
     41 H41        -2.0093    1.9241   45.6754 H       1  ZINC000375477402    0.0800
     42 H42        -1.3132   -0.4686   45.7603 H       1  ZINC000375477402    0.1000
     43 H43         0.0839    0.6175   45.5703 H       1  ZINC000375477402    0.0500
     44 H44         1.5362    0.9837   47.4906 H       1  ZINC000375477402    0.0600
     45 H45         1.1037    0.2128   49.0351 H       1  ZINC000375477402    0.1000
@<TRIPOS>BOND
     1     1     2    2
     2     2     3   am
     3     2    18   am
     4     3     4    1
     5     3    28    1
     6     4     5    1
     7     4     6    1
     8     4    14    1
     9     6    12   ar
    10     6     7   ar
    11     7     8   ar
    12     7    29    1
    13     8     9   ar
    14     8    30    1
    15     9    10   ar
    16     9    31    1
    17    10    11    1
    18    10    12   ar
    19    12    13    1
    20    14    15    1
    21    14    16    1
    22    14    17    1
    23    18    22    1
    24    18    19    1
    25    19    20    1
    26    19    32    1
    27    19    33    1
    28    20    21    1
    29    20    34    1
    30    20    35    1
    31    21    27    1
    32    21    22    1
    33    21    23    1
    34    22    36    1
    35    22    37    1
    36    23    24    1
    37    23    38    1
    38    23    39    1
    39    24    25    1
    40    24    40    1
    41    24    41    1
    42    25    26    1
    43    25    42    1
    44    25    43    1
    45    26    27    1
    46    27    44    1
    47    27    45    1
@<TRIPOS>SUBSTRUCTURE
     1 ZINC000375477402        1 TEMP              0 ****  ****    0 ROOT


##########                                Name:    ZINC000326056918
##########                DOCK_Rotatable_Bonds:                   6
##########                         Heavy_Atoms:                  24
##########                    Molecular_Weight:             408.326
##########                DOCK_Rotatable_Bonds:                   6
##########                       Formal_Charge:         -0.00999978
##########                     HBond_Acceptors:                   9
##########                        HBond_Donors:                   0
##########                         Heavy_Atoms:                  24
##########                          Grid_Score:          -26.161442
##########                     Grid_vdw_energy:          -26.294134
##########                      Grid_es_energy:            0.132693
##########           Internal_energy_repulsive:           30.933228

@<TRIPOS>MOLECULE
ZINC000326056918
 39 40 1 0 0
SMALL
USER_CHARGES


@<TRIPOS>ATOM
      1 C1        -14.5844    0.0199   53.9682 C.3     1  ZINC000326056918    0.0400
      2 O2        -14.6534   -0.9580   52.8972 O.3     1  ZINC000326056918   -0.3500
      3 C3        -14.4700   -2.2509   53.2358 C.2     1  ZINC000326056918    0.5000
      4 O4        -14.5497   -3.1190   52.3876 O.2     1  ZINC000326056918   -0.4300
      5 C5        -14.1751   -2.6092   54.6242 C.2     1  ZINC000326056918   -0.1600
      6 C6        -12.9976   -3.1394   55.0739 C.2     1  ZINC000326056918   -0.6200
      7 S7        -11.6242   -3.4788   54.0234 S.o2    1  ZINC000326056918    2.6900
      8 O8        -10.4703   -3.4590   54.8524 O.2     1  ZINC000326056918   -0.9100
      9 O9        -11.9926   -4.5993   53.2309 O.2     1  ZINC000326056918   -0.9400
     10 N10       -11.4747   -2.1991   52.9831 N.am    1  ZINC000326056918   -0.9900
     11 C11       -11.5778   -2.4141   51.5377 C.3     1  ZINC000326056918    0.0900
     12 C12       -11.2392   -0.8518   53.5083 C.3     1  ZINC000326056918    0.1500
     13 C13        -9.9004   -0.3529   53.0293 C.ar    1  ZINC000326056918   -0.0900
     14 C14        -8.8566   -1.2405   52.8489 C.ar    1  ZINC000326056918   -0.0800
     15 C15        -7.6279   -0.7837   52.4100 C.ar    1  ZINC000326056918   -0.1100
     16 C16        -7.4426    0.5625   52.1505 C.ar    1  ZINC000326056918   -0.0200
     17 Cl17       -5.8999    1.1360   51.5987 Cl      1  ZINC000326056918   -0.0600
     18 C18        -8.4874    1.4515   52.3304 C.ar    1  ZINC000326056918   -0.1100
     19 C19        -9.7179    0.9930   52.7646 C.ar    1  ZINC000326056918   -0.0300
     20 Cl20      -11.0295    2.1077   52.9901 Cl      1  ZINC000326056918   -0.0100
     21 C21       -12.9917   -3.3803   56.4268 C.2     1  ZINC000326056918   -0.0400
     22 C22       -11.7980   -3.9623   57.1391 C.3     1  ZINC000326056918   -0.1100
     23 C23       -14.1234   -3.0597   57.0657 C.2     1  ZINC000326056918   -0.2600
     24 S24       -15.2757   -2.4198   55.9824 S.3     1  ZINC000326056918    0.3100
     25 H25       -14.7488    1.0174   53.5605 H       1  ZINC000326056918    0.1100
     26 H26       -15.3511   -0.1998   54.7110 H       1  ZINC000326056918    0.0700
     27 H27       -13.6012   -0.0234   54.4370 H       1  ZINC000326056918    0.0700
     28 H28       -12.6269   -2.3986   51.2420 H       1  ZINC000326056918    0.0600
     29 H29       -11.0409   -1.6235   51.0135 H       1  ZINC000326056918    0.0700
     30 H30       -11.1425   -3.3802   51.2821 H       1  ZINC000326056918    0.0900
     31 H31       -12.0237   -0.1822   53.1559 H       1  ZINC000326056918    0.1100
     32 H32       -11.2479   -0.8799   54.5979 H       1  ZINC000326056918    0.0900
     33 H33        -9.0007   -2.2916   53.0514 H       1  ZINC000326056918    0.1400
     34 H34        -6.8124   -1.4777   52.2699 H       1  ZINC000326056918    0.1400
     35 H35        -8.3432    2.5026   52.1279 H       1  ZINC000326056918    0.1500
     36 H36       -11.0912   -3.1664   57.3737 H       1  ZINC000326056918    0.0900
     37 H37       -12.1241   -4.4424   58.0618 H       1  ZINC000326056918    0.0700
     38 H38       -11.3154   -4.6992   56.4970 H       1  ZINC000326056918    0.0900
     39 H39       -14.2841   -3.1858   58.1262 H       1  ZINC000326056918    0.1800
@<TRIPOS>BOND
     1     1     2    1
     2     1    25    1
     3     1    26    1
     4     1    27    1
     5     2     3    1
     6     3     4    2
     7     3     5    1
     8     5    24    1
     9     5     6    2
    10     6     7    1
    11     6    21    1
    12     7     8    2
    13     7     9    2
    14     7    10   am
    15    10    11    1
    16    10    12    1
    17    11    28    1
    18    11    29    1
    19    11    30    1
    20    12    13    1
    21    12    31    1
    22    12    32    1
    23    13    19   ar
    24    13    14   ar
    25    14    15   ar
    26    14    33    1
    27    15    16   ar
    28    15    34    1
    29    16    17    1
    30    16    18   ar
    31    18    19   ar
    32    18    35    1
    33    19    20    1
    34    21    22    1
    35    21    23    2
    36    22    36    1
    37    22    37    1
    38    22    38    1
    39    23    24    1
    40    23    39    1
@<TRIPOS>SUBSTRUCTURE
     1 ZINC000326056918        1 TEMP              0 ****  ****    0 ROOT


##########                                Name:    ZINC000288921983
##########                DOCK_Rotatable_Bonds:                   6
##########                         Heavy_Atoms:                  26
##########                    Molecular_Weight:             356.428
##########                DOCK_Rotatable_Bonds:                   6
##########                       Formal_Charge:           0.0199997
##########                     HBond_Acceptors:                   8
##########                        HBond_Donors:                   1
##########                         Heavy_Atoms:                  26
##########                          Grid_Score:          -26.118412
##########                     Grid_vdw_energy:          -26.071423
##########                      Grid_es_energy:           -0.046990
##########           Internal_energy_repulsive:           59.140167

@<TRIPOS>MOLECULE
ZINC000288921983
 50 53 1 0 0
SMALL
USER_CHARGES


@<TRIPOS>ATOM
      1 C1          3.1750    2.6395   56.1619 C.3     1  ZINC000288921983   -0.1400
      2 C2          4.2853    2.8399   55.1286 C.3     1  ZINC000288921983   -0.0500
      3 C3          3.7017    2.7575   53.7416 C.ar    1  ZINC000288921983    0.3000
      4 N4          3.6426    1.5859   53.1409 N.ar    1  ZINC000288921983   -0.5000
      5 C5          3.1375    1.4716   51.9238 C.ar    1  ZINC000288921983    0.1300
      6 C6          2.6651    2.6113   51.2787 C.ar    1  ZINC000288921983    0.0500
      7 N7          2.1224    2.5348   49.9905 N.am    1  ZINC000288921983   -0.6700
      8 C8          0.7853    2.5404   49.8211 C.2     1  ZINC000288921983    0.7100
      9 O9          0.0504    2.6118   50.7871 O.2     1  ZINC000288921983   -0.5500
     10 N10         0.2628    2.4667   48.5809 N.am    1  ZINC000288921983   -0.6200
     11 C11         1.1380    2.3797   47.4040 C.3     1  ZINC000288921983    0.1100
     12 C12         0.7260    1.1609   46.5722 C.3     1  ZINC000288921983   -0.1400
     13 C13        -0.7653    1.2549   46.2411 C.3     1  ZINC000288921983   -0.1200
     14 C14        -1.5785    1.2522   47.5376 C.3     1  ZINC000288921983   -0.1300
     15 C15        -1.1927    2.4658   48.3807 C.3     1  ZINC000288921983    0.2700
     16 H16        -1.4848    3.3788   47.8619 H       1  ZINC000288921983    0.1100
     17 C17        -1.8909    2.3969   49.7144 C.2     1  ZINC000288921983    0.1700
     18 N18        -2.2144    1.3128   50.3601 N.2     1  ZINC000288921983   -0.2500
     19 N19        -2.7961    1.6302   51.4630 N.2     1  ZINC000288921983   -0.2700
     20 C20        -2.8633    2.9277   51.5585 C.2     1  ZINC000288921983    0.1800
     21 C21        -3.4695    3.7080   52.6964 C.3     1  ZINC000288921983   -0.0300
     22 C22        -2.8231    3.4116   54.0598 C.3     1  ZINC000288921983   -0.1200
     23 C23        -1.8280    4.5410   53.7453 C.3     1  ZINC000288921983   -0.1400
     24 C24        -2.9122    5.1349   52.8307 C.3     1  ZINC000288921983   -0.1200
     25 O25        -2.2886    3.4426   50.4585 O.3     1  ZINC000288921983   -0.2200
     26 C26         2.7460    3.8292   51.9486 C.ar    1  ZINC000288921983    0.1600
     27 N27         3.2602    3.8584   53.1669 N.ar    1  ZINC000288921983   -0.5000
     28 H28         3.5972    2.6991   57.1651 H       1  ZINC000288921983    0.0700
     29 H29         2.4197    3.4158   56.0389 H       1  ZINC000288921983    0.0600
     30 H30         2.7170    1.6609   56.0180 H       1  ZINC000288921983    0.0600
     31 H31         4.7434    3.8185   55.2724 H       1  ZINC000288921983    0.0900
     32 H32         5.0406    2.0636   55.2516 H       1  ZINC000288921983    0.0900
     33 H33         3.0926    0.5083   51.4374 H       1  ZINC000288921983    0.1700
     34 H34         2.7087    2.4777   49.2198 H       1  ZINC000288921983    0.4100
     35 H35         1.0342    3.2836   46.8038 H       1  ZINC000288921983    0.0800
     36 H36         2.1734    2.2691   47.7259 H       1  ZINC000288921983    0.0800
     37 H37         1.3032    1.1394   45.6478 H       1  ZINC000288921983    0.0900
     38 H38         0.9157    0.2510   47.1415 H       1  ZINC000288921983    0.0700
     39 H39        -0.9583    2.1772   45.6933 H       1  ZINC000288921983    0.0700
     40 H40        -1.0556    0.4013   45.6285 H       1  ZINC000288921983    0.0800
     41 H41        -2.6415    1.2955   47.3003 H       1  ZINC000288921983    0.0900
     42 H42        -1.3671    0.3413   48.0977 H       1  ZINC000288921983    0.0900
     43 H43        -4.5584    3.6615   52.7085 H       1  ZINC000288921983    0.1000
     44 H44        -3.4738    3.6265   54.9075 H       1  ZINC000288921983    0.1000
     45 H45        -2.3608    2.4262   54.1189 H       1  ZINC000288921983    0.0800
     46 H46        -1.5917    5.1670   54.6058 H       1  ZINC000288921983    0.0700
     47 H47        -0.9407    4.2044   53.2091 H       1  ZINC000288921983    0.1000
     48 H48        -2.5218    5.5408   51.8974 H       1  ZINC000288921983    0.0700
     49 H49        -3.5872    5.8210   53.3422 H       1  ZINC000288921983    0.1000
     50 H50         2.3906    4.7360   51.4820 H       1  ZINC000288921983    0.1800
@<TRIPOS>BOND
     1     1     2    1
     2     1    28    1
     3     1    29    1
     4     1    30    1
     5     2     3    1
     6     2    31    1
     7     2    32    1
     8     3    27   ar
     9     3     4   ar
    10     4     5   ar
    11     5     6   ar
    12     5    33    1
    13     6     7    1
    14     6    26   ar
    15     7     8   am
    16     7    34    1
    17     8     9    2
    18     8    10   am
    19    10    15    1
    20    10    11    1
    21    11    12    1
    22    11    35    1
    23    11    36    1
    24    12    13    1
    25    12    37    1
    26    12    38    1
    27    13    14    1
    28    13    39    1
    29    13    40    1
    30    14    15    1
    31    14    41    1
    32    14    42    1
    33    15    16    1
    34    15    17    1
    35    17    25    1
    36    17    18    2
    37    18    19    1
    38    19    20    2
    39    20    21    1
    40    20    25    1
    41    21    24    1
    42    21    22    1
    43    21    43    1
    44    22    23    1
    45    22    44    1
    46    22    45    1
    47    23    24    1
    48    23    46    1
    49    23    47    1
    50    24    48    1
    51    24    49    1
    52    26    27   ar
    53    26    50    1
@<TRIPOS>SUBSTRUCTURE
     1 ZINC000288921983        1 TEMP              0 ****  ****    0 ROOT


##########                                Name:    ZINC000179211660
##########                DOCK_Rotatable_Bonds:                   6
##########                         Heavy_Atoms:                  23
##########                    Molecular_Weight:             385.208
##########                DOCK_Rotatable_Bonds:                   6
##########                       Formal_Charge:        -1.78814e-07
##########                     HBond_Acceptors:                   6
##########                        HBond_Donors:                   1
##########                         Heavy_Atoms:                  23
##########                          Grid_Score:          -26.109432
##########                     Grid_vdw_energy:          -25.203997
##########                      Grid_es_energy:           -0.905436
##########           Internal_energy_repulsive:           14.889503

@<TRIPOS>MOLECULE
ZINC000179211660
 38 39 1 0 0
SMALL
USER_CHARGES


@<TRIPOS>ATOM
      1 C1         -5.9299    4.6896   54.7737 C.3     1  ZINC000179211660    0.0300
      2 O2         -4.8288    4.0800   54.0969 O.3     1  ZINC000179211660   -0.2700
      3 C3         -5.1165    3.0633   53.2420 C.ar    1  ZINC000179211660    0.1500
      4 C4         -6.4341    2.6845   53.0313 C.ar    1  ZINC000179211660   -0.2200
      5 C5         -6.7239    1.6509   52.1614 C.ar    1  ZINC000179211660   -0.0700
      6 C6         -5.7020    0.9941   51.5017 C.ar    1  ZINC000179211660   -0.1700
      7 C7         -4.3875    1.3696   51.7104 C.ar    1  ZINC000179211660   -0.0700
      8 C8         -4.0929    2.4062   52.5743 C.ar    1  ZINC000179211660   -0.1500
      9 C9         -2.6603    2.8152   52.8009 C.3     1  ZINC000179211660    0.1800
     10 N10        -2.2304    3.7072   51.7211 N.am    1  ZINC000179211660   -0.6200
     11 C11        -2.6298    5.1166   51.7325 C.3     1  ZINC000179211660    0.0700
     12 C12        -1.4677    3.2311   50.7171 C.2     1  ZINC000179211660    0.7000
     13 O13        -1.1096    3.9716   49.8217 O.2     1  ZINC000179211660   -0.5300
     14 N14        -1.1017    1.9340   50.7057 N.am    1  ZINC000179211660   -0.6800
     15 C15        -0.3087    1.4390   49.6621 C.ar    1  ZINC000179211660    0.1900
     16 C16         1.0366    1.1757   49.8765 C.ar    1  ZINC000179211660   -0.1400
     17 C17         1.8175    0.6863   48.8442 C.ar    1  ZINC000179211660    0.1500
     18 F18         3.1275    0.4296   49.0522 F       1  ZINC000179211660   -0.1100
     19 C19         1.2570    0.4589   47.5980 C.ar    1  ZINC000179211660   -0.1300
     20 Br20        2.3270   -0.2105   46.1897 Br      1  ZINC000179211660   -0.0100
     21 C21        -0.0845    0.7204   47.3821 C.ar    1  ZINC000179211660   -0.0700
     22 C22        -0.8699    1.2052   48.4114 C.ar    1  ZINC000179211660    0.0600
     23 F23        -2.1797    1.4602   48.1998 F       1  ZINC000179211660   -0.1300
     24 H24        -5.5623    5.4840   55.4233 H       1  ZINC000179211660    0.1000
     25 H25        -6.6195    5.1090   54.0412 H       1  ZINC000179211660    0.0500
     26 H26        -6.4477    3.9406   55.3730 H       1  ZINC000179211660    0.0500
     27 H27        -7.2328    3.1968   53.5471 H       1  ZINC000179211660    0.1300
     28 H28        -7.7497    1.3556   51.9971 H       1  ZINC000179211660    0.1200
     29 H29        -5.9304    0.1862   50.8224 H       1  ZINC000179211660    0.1200
     30 H30        -3.5908    0.8547   51.1940 H       1  ZINC000179211660    0.1300
     31 H31        -2.5773    3.3343   53.7557 H       1  ZINC000179211660    0.0900
     32 H32        -2.0268    1.9283   52.8133 H       1  ZINC000179211660    0.1000
     33 H33        -1.8818    5.7019   52.2674 H       1  ZINC000179211660    0.0600
     34 H34        -2.7109    5.4796   50.7080 H       1  ZINC000179211660    0.0600
     35 H35        -3.5941    5.2170   52.2310 H       1  ZINC000179211660    0.0800
     36 H36        -1.3873    1.3432   51.4200 H       1  ZINC000179211660    0.4100
     37 H37         1.4739    1.3527   50.8479 H       1  ZINC000179211660    0.1800
     38 H38        -0.5190    0.5422   46.4096 H       1  ZINC000179211660    0.1600
@<TRIPOS>BOND
     1     1     2    1
     2     1    24    1
     3     1    25    1
     4     1    26    1
     5     2     3    1
     6     3     8   ar
     7     3     4   ar
     8     4     5   ar
     9     4    27    1
    10     5     6   ar
    11     5    28    1
    12     6     7   ar
    13     6    29    1
    14     7     8   ar
    15     7    30    1
    16     8     9    1
    17     9    10    1
    18     9    31    1
    19     9    32    1
    20    10    11    1
    21    10    12   am
    22    11    33    1
    23    11    34    1
    24    11    35    1
    25    12    13    2
    26    12    14   am
    27    14    15    1
    28    14    36    1
    29    15    22   ar
    30    15    16   ar
    31    16    17   ar
    32    16    37    1
    33    17    18    1
    34    17    19   ar
    35    19    20    1
    36    19    21   ar
    37    21    22   ar
    38    21    38    1
    39    22    23    1
@<TRIPOS>SUBSTRUCTURE
     1 ZINC000179211660        1 TEMP              0 ****  ****    0 ROOT


##########                                Name:    ZINC001179023006
##########                DOCK_Rotatable_Bonds:                   3
##########                         Heavy_Atoms:                  25
##########                    Molecular_Weight:             340.465
##########                DOCK_Rotatable_Bonds:                   3
##########                       Formal_Charge:          -0.0100005
##########                     HBond_Acceptors:                   4
##########                        HBond_Donors:                   1
##########                         Heavy_Atoms:                  25
##########                          Grid_Score:          -26.081045
##########                     Grid_vdw_energy:          -26.387871
##########                      Grid_es_energy:            0.306826
##########           Internal_energy_repulsive:           27.351936

@<TRIPOS>MOLECULE
ZINC001179023006
 53 56 1 0 0
SMALL
USER_CHARGES


@<TRIPOS>ATOM
      1 C1        -17.7908   -1.6356   58.0756 C.3     1  ZINC001179023006   -0.1500
      2 C2        -16.3990   -1.0011   58.0413 C.3     1  ZINC001179023006   -0.1100
      3 C3        -15.5049   -1.6763   59.0831 C.3     1  ZINC001179023006   -0.1100
      4 C4        -15.0302   -3.0398   58.6514 C.2     1  ZINC001179023006    0.5400
      5 O5        -15.4675   -4.0334   59.1921 O.2     1  ZINC001179023006   -0.5400
      6 N6        -14.1197   -3.1551   57.6644 N.am    1  ZINC001179023006   -0.5900
      7 C7        -13.5848   -1.9617   56.9952 C.3     1  ZINC001179023006    0.1000
      8 C8        -13.7643   -2.1132   55.4865 C.3     1  ZINC001179023006   -0.1200
      9 C9        -13.1125   -3.4256   55.0274 C.3     1  ZINC001179023006   -0.0500
     10 C10       -13.8301   -4.5957   55.7165 C.3     1  ZINC001179023006   -0.1100
     11 C11       -13.6466   -4.4771   57.2319 C.3     1  ZINC001179023006    0.0900
     12 C12       -13.2768   -3.5618   53.5219 C.3     1  ZINC001179023006   -0.0800
     13 C13       -12.6967   -2.3881   52.7937 C.ar    1  ZINC001179023006   -0.0700
     14 C14       -13.5659   -1.4681   52.2162 C.ar    1  ZINC001179023006   -0.1100
     15 C15       -13.0636   -0.3431   51.5923 C.ar    1  ZINC001179023006   -0.1100
     16 C16       -11.6994   -0.1276   51.5375 C.ar    1  ZINC001179023006   -0.1200
     17 C17       -10.8369   -1.0516   52.1002 C.ar    1  ZINC001179023006   -0.1000
     18 C18       -11.3517   -2.1793   52.7145 C.ar    1  ZINC001179023006   -0.1100
     19 C19       -10.4157   -3.2033   53.3041 C.3     1  ZINC001179023006    0.1400
     20 N20       -10.5719   -3.3047   54.7381 N.am    1  ZINC001179023006   -0.7000
     21 C21       -11.6727   -3.4266   55.4343 C.2     1  ZINC001179023006    0.5200
     22 O22       -11.4938   -3.5652   56.6258 O.2     1  ZINC001179023006   -0.5500
     23 C23       -16.0879   -1.6489   60.5059 C.3     1  ZINC001179023006   -0.1200
     24 C24       -14.6579   -1.3639   60.9999 C.3     1  ZINC001179023006   -0.1400
     25 C25       -14.3792   -0.7700   59.6090 C.3     1  ZINC001179023006   -0.1300
     26 H26       -18.4164   -1.1810   57.3074 H       1  ZINC001179023006    0.0600
     27 H27       -17.7067   -2.7062   57.8891 H       1  ZINC001179023006    0.0500
     28 H28       -18.2409   -1.4716   59.0547 H       1  ZINC001179023006    0.0600
     29 H29       -16.4791    0.0626   58.2657 H       1  ZINC001179023006    0.0700
     30 H30       -15.9645   -1.1316   57.0502 H       1  ZINC001179023006    0.0700
     31 H31       -14.1229   -1.0782   57.3388 H       1  ZINC001179023006    0.0900
     32 H32       -12.5244   -1.8581   57.2255 H       1  ZINC001179023006    0.0800
     33 H33       -13.2916   -1.2739   54.9763 H       1  ZINC001179023006    0.0800
     34 H34       -14.8277   -2.1320   55.2482 H       1  ZINC001179023006    0.0800
     35 H35       -13.4049   -5.5380   55.3709 H       1  ZINC001179023006    0.0800
     36 H36       -14.8925   -4.5654   55.4748 H       1  ZINC001179023006    0.0800
     37 H37       -12.5914   -4.5873   57.4819 H       1  ZINC001179023006    0.1200
     38 H38       -14.2254   -5.2538   57.7318 H       1  ZINC001179023006    0.0800
     39 H39       -12.7739   -4.4702   53.1900 H       1  ZINC001179023006    0.0800
     40 H40       -14.3381   -3.6378   53.2854 H       1  ZINC001179023006    0.0900
     41 H41       -14.6324   -1.6333   52.2562 H       1  ZINC001179023006    0.1200
     42 H42       -13.7394    0.3708   51.1451 H       1  ZINC001179023006    0.1200
     43 H43       -11.3089    0.7577   51.0580 H       1  ZINC001179023006    0.1300
     44 H44        -9.7693   -0.8936   52.0600 H       1  ZINC001179023006    0.1300
     45 H45        -9.3882   -2.9184   53.0775 H       1  ZINC001179023006    0.0900
     46 H46       -10.6217   -4.1745   52.8542 H       1  ZINC001179023006    0.0800
     47 H47        -9.7502   -3.2784   55.2529 H       1  ZINC001179023006    0.4000
     48 H48       -16.7814   -0.8258   60.6778 H       1  ZINC001179023006    0.0900
     49 H49       -16.4810   -2.6108   60.8352 H       1  ZINC001179023006    0.0800
     50 H50       -14.0832   -2.2652   61.2130 H       1  ZINC001179023006    0.0800
     51 H51       -14.6097   -0.6309   61.8052 H       1  ZINC001179023006    0.0700
     52 H52       -13.3948   -1.0235   59.2154 H       1  ZINC001179023006    0.0700
     53 H53       -14.6047    0.2939   59.5353 H       1  ZINC001179023006    0.0900
@<TRIPOS>BOND
     1     1     2    1
     2     1    26    1
     3     1    27    1
     4     1    28    1
     5     2     3    1
     6     2    29    1
     7     2    30    1
     8     3    25    1
     9     3     4    1
    10     3    23    1
    11     4     5    2
    12     4     6   am
    13     6    11    1
    14     6     7    1
    15     7     8    1
    16     7    31    1
    17     7    32    1
    18     8     9    1
    19     8    33    1
    20     8    34    1
    21     9    21    1
    22     9    10    1
    23     9    12    1
    24    10    11    1
    25    10    35    1
    26    10    36    1
    27    11    37    1
    28    11    38    1
    29    12    13    1
    30    12    39    1
    31    12    40    1
    32    13    18   ar
    33    13    14   ar
    34    14    15   ar
    35    14    41    1
    36    15    16   ar
    37    15    42    1
    38    16    17   ar
    39    16    43    1
    40    17    18   ar
    41    17    44    1
    42    18    19    1
    43    19    20    1
    44    19    45    1
    45    19    46    1
    46    20    21   am
    47    20    47    1
    48    21    22    2
    49    23    24    1
    50    23    48    1
    51    23    49    1
    52    24    25    1
    53    24    50    1
    54    24    51    1
    55    25    52    1
    56    25    53    1
@<TRIPOS>SUBSTRUCTURE
     1 ZINC001179023006        1 TEMP              0 ****  ****    0 ROOT


##########                                Name:    ZINC000560467340
##########                DOCK_Rotatable_Bonds:                   7
##########                         Heavy_Atoms:                  24
##########                    Molecular_Weight:             369.481
##########                DOCK_Rotatable_Bonds:                   7
##########                       Formal_Charge:          -0.0199997
##########                     HBond_Acceptors:                   7
##########                        HBond_Donors:                   2
##########                         Heavy_Atoms:                  24
##########                          Grid_Score:          -26.073290
##########                     Grid_vdw_energy:          -26.812704
##########                      Grid_es_energy:            0.739415
##########           Internal_energy_repulsive:           19.358006

@<TRIPOS>MOLECULE
ZINC000560467340
 44 46 1 0 0
SMALL
USER_CHARGES


@<TRIPOS>ATOM
      1 O1         -8.7412    0.9107   55.7433 O.2     1  ZINC000560467340   -0.9600
      2 S2        -10.0808    0.8429   56.2124 S.o2    1  ZINC000560467340    2.7100
      3 O3        -10.8552    1.9935   56.5217 O.2     1  ZINC000560467340   -0.9500
      4 N4        -10.9335   -0.0020   55.0716 N.am    1  ZINC000560467340   -1.0900
      5 C5        -10.4699   -1.3229   54.6400 C.3     1  ZINC000560467340    0.1400
      6 C6        -11.3526   -1.8246   53.4955 C.3     1  ZINC000560467340   -0.0500
      7 C7        -11.1751   -0.9305   52.2667 C.3     1  ZINC000560467340   -0.0700
      8 C8         -9.7465   -0.4565   52.1925 C.ar    1  ZINC000560467340   -0.0900
      9 C9         -9.4467    0.8725   52.4265 C.ar    1  ZINC000560467340   -0.0900
     10 C10        -8.1370    1.3084   52.3588 C.ar    1  ZINC000560467340   -0.1500
     11 C11        -7.1248    0.4131   52.0567 C.ar    1  ZINC000560467340    0.1000
     12 F12        -5.8441    0.8380   51.9907 F       1  ZINC000560467340   -0.1400
     13 C13        -7.4262   -0.9179   51.8230 C.ar    1  ZINC000560467340   -0.1500
     14 C14        -8.7362   -1.3523   51.8960 C.ar    1  ZINC000560467340   -0.0900
     15 C15       -12.8316   -1.8343   53.9341 C.3     1  ZINC000560467340   -0.1300
     16 C16       -13.4181   -3.1016   53.2640 C.3     1  ZINC000560467340   -0.1200
     17 C17       -12.2580   -4.1206   53.3856 C.3     1  ZINC000560467340   -0.1600
     18 C18       -10.9879   -3.2782   53.1468 C.3     1  ZINC000560467340    0.1100
     19 H19       -10.6854   -3.3469   52.1019 H       1  ZINC000560467340    0.0600
     20 O20        -9.9311   -3.7353   53.9931 O.3     1  ZINC000560467340   -0.5500
     21 C21       -10.0470   -0.1415   57.6733 C.2     1  ZINC000560467340   -0.6900
     22 C22       -11.0667   -0.9208   58.0371 C.2     1  ZINC000560467340   -0.1000
     23 S23       -10.6719   -1.7460   59.5393 S.3     1  ZINC000560467340    0.1500
     24 C24        -9.0976   -0.9632   59.5904 C.2     1  ZINC000560467340   -0.2200
     25 C25        -8.9581   -0.1695   58.5275 C.2     1  ZINC000560467340   -0.0700
     26 H26       -11.7400    0.3777   54.6892 H       1  ZINC000560467340    0.4200
     27 H27        -9.4373   -1.2518   54.2982 H       1  ZINC000560467340    0.0600
     28 H28       -10.5285   -2.0196   55.4763 H       1  ZINC000560467340    0.0800
     29 H29       -11.4172   -1.4968   51.3673 H       1  ZINC000560467340    0.0800
     30 H30       -11.8398   -0.0701   52.3443 H       1  ZINC000560467340    0.0800
     31 H31       -10.2364    1.5706   52.6621 H       1  ZINC000560467340    0.1300
     32 H32        -7.9031    2.3469   52.5409 H       1  ZINC000560467340    0.1400
     33 H33        -6.6376   -1.6170   51.5870 H       1  ZINC000560467340    0.1400
     34 H34        -8.9715   -2.3906   51.7140 H       1  ZINC000560467340    0.1300
     35 H35       -12.9073   -1.9068   55.0190 H       1  ZINC000560467340    0.0700
     36 H36       -13.3422   -0.9413   53.5739 H       1  ZINC000560467340    0.0800
     37 H37       -14.2981   -3.4518   53.8035 H       1  ZINC000560467340    0.0700
     38 H38       -13.6561   -2.9104   52.2176 H       1  ZINC000560467340    0.0700
     39 H39       -12.2411   -4.5623   54.3819 H       1  ZINC000560467340    0.0800
     40 H40       -12.3501   -4.8961   52.6250 H       1  ZINC000560467340    0.0700
     41 H41       -10.0033   -3.4353   54.9095 H       1  ZINC000560467340    0.3800
     42 H42       -11.9932   -1.0283   57.4927 H       1  ZINC000560467340    0.1800
     43 H43        -8.3557   -1.1068   60.3618 H       1  ZINC000560467340    0.1700
     44 H44        -8.0662    0.4134   58.3508 H       1  ZINC000560467340    0.1500
@<TRIPOS>BOND
     1     1     2    2
     2     2     3    2
     3     2     4   am
     4     2    21    1
     5     4     5    1
     6     4    26    1
     7     5     6    1
     8     5    27    1
     9     5    28    1
    10     6    18    1
    11     6     7    1
    12     6    15    1
    13     7     8    1
    14     7    29    1
    15     7    30    1
    16     8    14   ar
    17     8     9   ar
    18     9    10   ar
    19     9    31    1
    20    10    11   ar
    21    10    32    1
    22    11    12    1
    23    11    13   ar
    24    13    14   ar
    25    13    33    1
    26    14    34    1
    27    15    16    1
    28    15    35    1
    29    15    36    1
    30    16    17    1
    31    16    37    1
    32    16    38    1
    33    17    18    1
    34    17    39    1
    35    17    40    1
    36    18    19    1
    37    18    20    1
    38    20    41    1
    39    21    25    1
    40    21    22    2
    41    22    23    1
    42    22    42    1
    43    23    24    1
    44    24    25    2
    45    24    43    1
    46    25    44    1
@<TRIPOS>SUBSTRUCTURE
     1 ZINC000560467340        1 TEMP              0 ****  ****    0 ROOT


##########                                Name:    ZINC000648570180
##########                DOCK_Rotatable_Bonds:                   4
##########                         Heavy_Atoms:                  25
##########                    Molecular_Weight:             342.484
##########                DOCK_Rotatable_Bonds:                   4
##########                       Formal_Charge:          0.00999971
##########                     HBond_Acceptors:                   5
##########                        HBond_Donors:                   0
##########                         Heavy_Atoms:                  25
##########                          Grid_Score:          -25.990601
##########                     Grid_vdw_energy:          -24.961441
##########                      Grid_es_energy:           -1.029160
##########           Internal_energy_repulsive:           83.076622

@<TRIPOS>MOLECULE
ZINC000648570180
 55 58 1 0 0
SMALL
USER_CHARGES


@<TRIPOS>ATOM
      1 C1         -9.0305    5.1478   53.1742 C.3     1  ZINC000648570180   -0.1500
      2 C2         -9.5385    4.1553   54.2220 C.3     1  ZINC000648570180   -0.0600
      3 C3         -9.6362    4.8392   55.5871 C.3     1  ZINC000648570180   -0.1400
      4 C4        -10.9185    3.6064   53.8047 C.3     1  ZINC000648570180   -0.1200
      5 C5        -10.8867    2.1225   54.2474 C.3     1  ZINC000648570180   -0.1300
      6 C6         -9.4284    1.7039   53.9354 C.3     1  ZINC000648570180   -0.1200
      7 C7         -8.5911    2.9457   54.3051 C.3     1  ZINC000648570180   -0.0700
      8 H8         -8.2016    2.8454   55.3182 H       1  ZINC000648570180    0.0800
      9 C9         -7.4370    3.1135   53.3147 C.3     1  ZINC000648570180   -0.1000
     10 H10        -7.7913    3.5311   52.3722 H       1  ZINC000648570180    0.1000
     11 C11        -6.3069    3.9873   53.9203 C.3     1  ZINC000648570180   -0.1400
     12 C12        -5.0516    3.4998   53.1667 C.3     1  ZINC000648570180    0.1200
     13 N13        -5.3424    2.1500   52.6614 N.am    1  ZINC000648570180   -0.6000
     14 C14        -4.5045    1.3868   51.9322 C.2     1  ZINC000648570180    0.5800
     15 O15        -4.8524    0.2821   51.5660 O.2     1  ZINC000648570180   -0.5200
     16 C16        -3.1561    1.8963   51.5764 C.ar    1  ZINC000648570180    0.1600
     17 C17        -2.2468    2.2490   52.5733 C.ar    1  ZINC000648570180   -0.2000
     18 C18        -0.9979    2.7200   52.1920 C.ar    1  ZINC000648570180    0.1800
     19 N19        -0.7105    2.8191   50.9064 N.ar    1  ZINC000648570180   -0.5400
     20 C20        -1.5960    2.4760   49.9811 C.ar    1  ZINC000648570180    0.4800
     21 N21        -1.2551    2.5951   48.6448 N.3     1  ZINC000648570180   -0.4400
     22 C22         0.0419    3.3019   48.4871 C.3     1  ZINC000648570180    0.0500
     23 C23         0.5024    2.8852   47.0676 C.3     1  ZINC000648570180   -0.1200
     24 C24         0.0521    1.4089   46.9777 C.3     1  ZINC000648570180   -0.1300
     25 C25        -1.0676    1.2654   48.0250 C.3     1  ZINC000648570180    0.0400
     26 N26        -2.7948    2.0181   50.3015 N.ar    1  ZINC000648570180   -0.5000
     27 C27        -6.7026    1.7691   53.0848 C.3     1  ZINC000648570180    0.1100
     28 H28        -8.8594    4.6263   52.2325 H       1  ZINC000648570180    0.0600
     29 H29        -9.7735    5.9314   53.0257 H       1  ZINC000648570180    0.0500
     30 H30        -8.0968    5.5929   53.5179 H       1  ZINC000648570180    0.0700
     31 H31       -10.3185    5.6868   55.5209 H       1  ZINC000648570180    0.0500
     32 H32       -10.0105    4.1282   56.3237 H       1  ZINC000648570180    0.0500
     33 H33        -8.6495    5.1899   55.8894 H       1  ZINC000648570180    0.0500
     34 H34       -11.7144    4.1420   54.3222 H       1  ZINC000648570180    0.0600
     35 H35       -11.0475    3.6798   52.7249 H       1  ZINC000648570180    0.0700
     36 H36       -11.0946    2.0329   55.3137 H       1  ZINC000648570180    0.0700
     37 H37       -11.5917    1.5302   53.6641 H       1  ZINC000648570180    0.0700
     38 H38        -9.1369    0.8510   54.5484 H       1  ZINC000648570180    0.0700
     39 H39        -9.3169    1.4700   52.8767 H       1  ZINC000648570180    0.0700
     40 H40        -6.4889    5.0438   53.7235 H       1  ZINC000648570180    0.0900
     41 H41        -6.2096    3.8044   54.9905 H       1  ZINC000648570180    0.0800
     42 H42        -4.8361    4.1689   52.3337 H       1  ZINC000648570180    0.0800
     43 H43        -4.2007    3.4655   53.8471 H       1  ZINC000648570180    0.0700
     44 H44        -2.5083    2.1582   53.6173 H       1  ZINC000648570180    0.1600
     45 H45        -0.2696    3.0025   52.9378 H       1  ZINC000648570180    0.1800
     46 H46        -0.0987    4.3812   48.5446 H       1  ZINC000648570180    0.1000
     47 H47         0.7569    2.9655   49.2379 H       1  ZINC000648570180    0.0500
     48 H48         0.0041    3.4875   46.3082 H       1  ZINC000648570180    0.0800
     49 H49         1.5856    2.9643   46.9749 H       1  ZINC000648570180    0.0800
     50 H50        -0.3318    1.1907   45.9811 H       1  ZINC000648570180    0.0800
     51 H51         0.8824    0.7448   47.2179 H       1  ZINC000648570180    0.0700
     52 H52        -0.7752    0.5399   48.7841 H       1  ZINC000648570180    0.0900
     53 H53        -1.9909    0.9481   47.5404 H       1  ZINC000648570180    0.0900
     54 H54        -6.6649    1.1951   54.0107 H       1  ZINC000648570180    0.0700
     55 H55        -7.1969    1.1946   52.3014 H       1  ZINC000648570180    0.0800
@<TRIPOS>BOND
     1     1     2    1
     2     1    28    1
     3     1    29    1
     4     1    30    1
     5     2     7    1
     6     2     3    1
     7     2     4    1
     8     3    31    1
     9     3    32    1
    10     3    33    1
    11     4     5    1
    12     4    34    1
    13     4    35    1
    14     5     6    1
    15     5    36    1
    16     5    37    1
    17     6     7    1
    18     6    38    1
    19     6    39    1
    20     7     8    1
    21     7     9    1
    22     9    10    1
    23     9    27    1
    24     9    11    1
    25    11    12    1
    26    11    40    1
    27    11    41    1
    28    12    13    1
    29    12    42    1
    30    12    43    1
    31    13    14   am
    32    13    27    1
    33    14    15    2
    34    14    16    1
    35    16    26   ar
    36    16    17   ar
    37    17    18   ar
    38    17    44    1
    39    18    19   ar
    40    18    45    1
    41    19    20   ar
    42    20    21    1
    43    20    26   ar
    44    21    25    1
    45    21    22    1
    46    22    23    1
    47    22    46    1
    48    22    47    1
    49    23    24    1
    50    23    48    1
    51    23    49    1
    52    24    25    1
    53    24    50    1
    54    24    51    1
    55    25    52    1
    56    25    53    1
    57    27    54    1
    58    27    55    1
@<TRIPOS>SUBSTRUCTURE
     1 ZINC000648570180        1 TEMP              0 ****  ****    0 ROOT


##########                                Name:    ZINC001002468398
##########                DOCK_Rotatable_Bonds:                   7
##########                         Heavy_Atoms:                  24
##########                    Molecular_Weight:             341.358
##########                DOCK_Rotatable_Bonds:                   7
##########                       Formal_Charge:           0.0100001
##########                     HBond_Acceptors:                   8
##########                        HBond_Donors:                   0
##########                         Heavy_Atoms:                  24
##########                          Grid_Score:          -25.983164
##########                     Grid_vdw_energy:          -25.450832
##########                      Grid_es_energy:           -0.532331
##########           Internal_energy_repulsive:           23.906025

@<TRIPOS>MOLECULE
ZINC001002468398
 45 47 1 0 0
SMALL
USER_CHARGES


@<TRIPOS>ATOM
      1 C1         -7.4495    2.3951   53.9393 C.3     1  ZINC001002468398   -0.1400
      2 C2         -8.3552    1.1948   54.2221 C.3     1  ZINC001002468398   -0.0500
      3 C3         -8.2348    0.1987   53.0976 C.2     1  ZINC001002468398    0.0500
      4 C4         -9.1754   -0.7066   52.7134 C.2     1  ZINC001002468398   -0.0800
      5 C5        -10.5056   -0.8983   53.3192 C.2     1  ZINC001002468398    0.6000
      6 O6        -11.1365    0.0622   53.7172 O.2     1  ZINC001002468398   -0.5300
      7 N7        -11.0226   -2.1378   53.4320 N.am    1  ZINC001002468398   -0.6000
      8 C8        -10.2625   -3.2948   52.9526 C.3     1  ZINC001002468398    0.0900
      9 C9        -12.3445   -2.3282   54.0340 C.3     1  ZINC001002468398    0.1000
     10 C10       -12.2436   -3.3411   55.1761 C.3     1  ZINC001002468398    0.1300
     11 H11       -11.2220   -3.7137   55.2520 H       1  ZINC001002468398    0.0800
     12 C12       -13.2130   -4.5150   54.9238 C.3     1  ZINC001002468398   -0.1300
     13 C13       -13.7541   -4.8302   56.3434 C.3     1  ZINC001002468398   -0.1300
     14 C14       -13.8247   -3.4155   56.9705 C.3     1  ZINC001002468398    0.1000
     15 N15       -12.6400   -2.7080   56.4425 N.am    1  ZINC001002468398   -0.6100
     16 C16       -12.0283   -1.6576   57.0246 C.2     1  ZINC001002468398    0.5600
     17 O17       -11.0586   -1.1531   56.4992 O.2     1  ZINC001002468398   -0.5100
     18 C18       -12.5493   -1.1099   58.3284 C.3     1  ZINC001002468398   -0.2000
     19 H19       -13.5817   -0.7607   58.3124 H       1  ZINC001002468398    0.1500
     20 C20       -11.5626   -0.3571   59.2231 C.3     1  ZINC001002468398   -0.1500
     21 C21       -12.0419   -1.7558   59.6192 C.3     1  ZINC001002468398    0.2300
     22 F22       -12.9384   -1.8526   60.6889 F       1  ZINC001002468398   -0.1500
     23 F23       -11.1294   -2.8095   59.4990 F       1  ZINC001002468398   -0.1400
     24 N24        -8.6571   -1.4014   51.6644 N.2     1  ZINC001002468398   -0.4600
     25 C25        -7.4647   -0.9475   51.4187 C.2     1  ZINC001002468398    0.1700
     26 O26        -7.1815    0.0396   52.2804 O.3     1  ZINC001002468398   -0.2000
     27 H27        -6.4155    2.0594   53.8605 H       1  ZINC001002468398    0.0600
     28 H28        -7.7513    2.8654   53.0034 H       1  ZINC001002468398    0.0600
     29 H29        -7.5366    3.1155   54.7527 H       1  ZINC001002468398    0.0700
     30 H30        -8.0536    0.7245   55.1579 H       1  ZINC001002468398    0.1200
     31 H31        -9.3892    1.5304   54.3009 H       1  ZINC001002468398    0.0900
     32 H32        -9.3415   -3.3884   53.5282 H       1  ZINC001002468398    0.0700
     33 H33       -10.8603   -4.1981   53.0744 H       1  ZINC001002468398    0.0700
     34 H34       -10.0200   -3.1590   51.8986 H       1  ZINC001002468398    0.0700
     35 H35       -12.7070   -1.3767   54.4232 H       1  ZINC001002468398    0.0900
     36 H36       -13.0375   -2.6997   53.2791 H       1  ZINC001002468398    0.0900
     37 H37       -14.0231   -4.2106   54.2611 H       1  ZINC001002468398    0.1000
     38 H38       -12.6806   -5.3736   54.5146 H       1  ZINC001002468398    0.0800
     39 H39       -14.7435   -5.2847   56.2923 H       1  ZINC001002468398    0.0900
     40 H40       -13.0612   -5.4672   56.8932 H       1  ZINC001002468398    0.0800
     41 H41       -14.7393   -2.9090   56.6621 H       1  ZINC001002468398    0.0800
     42 H42       -13.7735   -3.4794   58.0575 H       1  ZINC001002468398    0.0800
     43 H43       -10.5365   -0.2579   58.8688 H       1  ZINC001002468398    0.1300
     44 H44       -11.9459    0.4872   59.7961 H       1  ZINC001002468398    0.1400
     45 H45        -6.8073   -1.3059   50.6404 H       1  ZINC001002468398    0.2600
@<TRIPOS>BOND
     1     1     2    1
     2     1    27    1
     3     1    28    1
     4     1    29    1
     5     2     3    1
     6     2    30    1
     7     2    31    1
     8     3    26    1
     9     3     4    2
    10     4     5    1
    11     4    24    1
    12     5     6    2
    13     5     7   am
    14     7     8    1
    15     7     9    1
    16     8    32    1
    17     8    33    1
    18     8    34    1
    19     9    10    1
    20     9    35    1
    21     9    36    1
    22    10    11    1
    23    10    15    1
    24    10    12    1
    25    12    13    1
    26    12    37    1
    27    12    38    1
    28    13    14    1
    29    13    39    1
    30    13    40    1
    31    14    15    1
    32    14    41    1
    33    14    42    1
    34    15    16   am
    35    16    17    2
    36    16    18    1
    37    18    19    1
    38    18    21    1
    39    18    20    1
    40    20    21    1
    41    20    43    1
    42    20    44    1
    43    21    22    1
    44    21    23    1
    45    24    25    2
    46    25    26    1
    47    25    45    1
@<TRIPOS>SUBSTRUCTURE
     1 ZINC001002468398        1 TEMP              0 ****  ****    0 ROOT


##########                                Name:    ZINC000928803822
##########                DOCK_Rotatable_Bonds:                   7
##########                         Heavy_Atoms:                  21
##########                    Molecular_Weight:             364.165
##########                DOCK_Rotatable_Bonds:                   7
##########                       Formal_Charge:         -0.00999978
##########                     HBond_Acceptors:                   7
##########                        HBond_Donors:                   1
##########                         Heavy_Atoms:                  21
##########                          Grid_Score:          -25.920219
##########                     Grid_vdw_energy:          -25.286118
##########                      Grid_es_energy:           -0.634101
##########           Internal_energy_repulsive:            9.756789

@<TRIPOS>MOLECULE
ZINC000928803822
 34 34 1 0 0
SMALL
USER_CHARGES


@<TRIPOS>ATOM
      1 C1         -0.4925   -0.3702   46.6338 C.3     1  ZINC000928803822    0.0900
      2 N2         -0.7537    0.9375   47.2405 N.pl3   1  ZINC000928803822   -0.6300
      3 C3         -1.3421    2.0128   46.4382 C.3     1  ZINC000928803822    0.0900
      4 C4         -0.4419    1.1589   48.5842 C.ar    1  ZINC000928803822    0.2200
      5 C5          0.8610    0.9803   49.0336 C.ar    1  ZINC000928803822   -0.1500
      6 C6          1.1747    1.1983   50.3631 C.ar    1  ZINC000928803822   -0.0500
      7 Br7         2.9505    0.9531   50.9649 Br      1  ZINC000928803822   -0.0400
      8 C8          0.1953    1.5947   51.2520 C.ar    1  ZINC000928803822   -0.1200
      9 C9         -1.1162    1.7768   50.8099 C.ar    1  ZINC000928803822   -0.0800
     10 C10        -2.1669    2.2013   51.7597 C.2     1  ZINC000928803822    0.5700
     11 O11        -3.3111    1.8188   51.6112 O.2     1  ZINC000928803822   -0.5100
     12 N12        -1.8560    3.0124   52.7902 N.am    1  ZINC000928803822   -0.7200
     13 C13        -2.8973    3.4345   53.7303 C.3     1  ZINC000928803822    0.1100
     14 H14        -3.5064    2.5742   54.0080 H       1  ZINC000928803822    0.1400
     15 C15        -3.7819    4.4936   53.0696 C.3     1  ZINC000928803822   -0.0300
     16 C16        -2.9358    5.4655   52.3582 C.1     1  ZINC000928803822    0.2000
     17 N17        -2.2827    6.2155   51.8092 N.1     1  ZINC000928803822   -0.4000
     18 C18        -2.2454    4.0234   54.9828 C.3     1  ZINC000928803822    0.4400
     19 F19        -3.1961    4.7539   55.7037 F       1  ZINC000928803822   -0.1800
     20 F20        -1.7495    2.9874   55.7816 F       1  ZINC000928803822   -0.1700
     21 F21        -1.1945    4.8676   54.6086 F       1  ZINC000928803822   -0.1600
     22 C22        -1.4312    1.5625   49.4683 C.ar    1  ZINC000928803822   -0.1200
     23 H23         0.5131   -0.3813   46.2134 H       1  ZINC000928803822    0.0600
     24 H24        -0.5770   -1.1468   47.3940 H       1  ZINC000928803822    0.0700
     25 H25        -1.2191   -0.5554   45.8428 H       1  ZINC000928803822    0.0700
     26 H26        -2.4287    1.9662   46.5092 H       1  ZINC000928803822    0.0500
     27 H27        -0.9945    2.9762   46.8112 H       1  ZINC000928803822    0.0700
     28 H28        -1.0407    1.8960   45.3973 H       1  ZINC000928803822    0.0700
     29 H29         1.6309    0.6699   48.3428 H       1  ZINC000928803822    0.1400
     30 H30         0.4439    1.7637   52.2894 H       1  ZINC000928803822    0.1300
     31 H31        -0.9427    3.3167   52.9094 H       1  ZINC000928803822    0.4100
     32 H32        -4.4572    4.0130   52.3616 H       1  ZINC000928803822    0.1400
     33 H33        -4.3637    5.0092   53.8338 H       1  ZINC000928803822    0.1300
     34 H34        -2.4442    1.7018   49.1208 H       1  ZINC000928803822    0.1500
@<TRIPOS>BOND
     1     1     2    1
     2     1    23    1
     3     1    24    1
     4     1    25    1
     5     2     3    1
     6     2     4    1
     7     3    26    1
     8     3    27    1
     9     3    28    1
    10     4    22   ar
    11     4     5   ar
    12     5     6   ar
    13     5    29    1
    14     6     7    1
    15     6     8   ar
    16     8     9   ar
    17     8    30    1
    18     9    10    1
    19     9    22   ar
    20    10    11    2
    21    10    12   am
    22    12    13    1
    23    12    31    1
    24    13    14    1
    25    13    15    1
    26    13    18    1
    27    15    16    1
    28    15    32    1
    29    15    33    1
    30    16    17    3
    31    18    19    1
    32    18    20    1
    33    18    21    1
    34    22    34    1
@<TRIPOS>SUBSTRUCTURE
     1 ZINC000928803822        1 TEMP              0 ****  ****    0 ROOT


##########                                Name:    ZINC000680410869
##########                DOCK_Rotatable_Bonds:                   6
##########                         Heavy_Atoms:                  24
##########                    Molecular_Weight:             335.354
##########                DOCK_Rotatable_Bonds:                   6
##########                       Formal_Charge:        -1.04308e-07
##########                     HBond_Acceptors:                   7
##########                        HBond_Donors:                   0
##########                         Heavy_Atoms:                  24
##########                          Grid_Score:          -25.895283
##########                     Grid_vdw_energy:          -25.568213
##########                      Grid_es_energy:           -0.327070
##########           Internal_energy_repulsive:            9.037077

@<TRIPOS>MOLECULE
ZINC000680410869
 43 45 1 0 0
SMALL
USER_CHARGES


@<TRIPOS>ATOM
      1 O1          1.7835   -0.8001   46.9079 O.2     1  ZINC000680410869   -0.5200
      2 C2          1.6608   -0.1316   47.9158 C.2     1  ZINC000680410869    0.6100
      3 C3          2.7711   -0.0481   48.8865 C.2     1  ZINC000680410869    0.0100
      4 N4          2.9298   -0.7924   49.9627 N.2     1  ZINC000680410869   -0.2500
      5 N5          4.0043   -0.4525   50.5793 N.pl3   1  ZINC000680410869   -0.3500
      6 C6          4.4922   -1.0700   51.8149 C.3     1  ZINC000680410869    0.5000
      7 F7          4.0781   -2.4054   51.8640 F       1  ZINC000680410869   -0.1600
      8 F8          5.8897   -1.0137   51.8442 F       1  ZINC000680410869   -0.1700
      9 C9          4.6196    0.5553   49.9243 C.2     1  ZINC000680410869    0.0100
     10 C10         3.8699    0.8421   48.8345 C.2     1  ZINC000680410869   -0.1700
     11 N11         0.5137    0.5379   48.1450 N.am    1  ZINC000680410869   -0.6000
     12 C12        -0.6062    0.4701   47.1927 C.3     1  ZINC000680410869    0.0800
     13 C13        -1.0591    1.8999   46.8764 C.3     1  ZINC000680410869    0.0500
     14 O14        -1.3074    2.5967   48.0998 O.3     1  ZINC000680410869   -0.3700
     15 C15        -0.1553    2.7445   48.9333 C.3     1  ZINC000680410869    0.0800
     16 H16         0.6296    3.2617   48.3812 H       1  ZINC000680410869    0.0600
     17 C17        -0.5249    3.5558   50.1767 C.3     1  ZINC000680410869   -0.1000
     18 C18        -1.9892    3.2976   50.5376 C.3     1  ZINC000680410869   -0.0800
     19 C19        -2.2850    3.8904   51.8911 C.ar    1  ZINC000680410869   -0.0800
     20 C20        -2.0721    3.1431   53.0344 C.ar    1  ZINC000680410869   -0.1200
     21 C21        -2.3435    3.6869   54.2760 C.ar    1  ZINC000680410869   -0.1200
     22 C22        -2.8274    4.9781   54.3743 C.ar    1  ZINC000680410869   -0.1300
     23 C23        -3.0394    5.7256   53.2310 C.ar    1  ZINC000680410869   -0.1200
     24 C24        -2.7640    5.1834   51.9897 C.ar    1  ZINC000680410869   -0.1200
     25 C25         0.3419    1.3533   49.3577 C.3     1  ZINC000680410869    0.0600
     26 H26         4.0889   -0.5328   52.6734 H       1  ZINC000680410869    0.1700
     27 H27         5.5406    1.0395   50.2138 H       1  ZINC000680410869    0.1900
     28 H28         4.0658    1.5955   48.0859 H       1  ZINC000680410869    0.1700
     29 H29        -0.2799   -0.0228   46.2769 H       1  ZINC000680410869    0.1000
     30 H30        -1.4316   -0.0870   47.6359 H       1  ZINC000680410869    0.0800
     31 H31        -0.2775    2.4140   46.3168 H       1  ZINC000680410869    0.0600
     32 H32        -1.9728    1.8695   46.2828 H       1  ZINC000680410869    0.1100
     33 H33         0.1126    3.2564   51.0086 H       1  ZINC000680410869    0.0800
     34 H34        -0.3825    4.6172   49.9736 H       1  ZINC000680410869    0.0800
     35 H35        -2.6344    3.7590   49.7899 H       1  ZINC000680410869    0.0700
     36 H36        -2.1731    2.2235   50.5632 H       1  ZINC000680410869    0.0800
     37 H37        -1.6941    2.1344   52.9576 H       1  ZINC000680410869    0.1200
     38 H38        -2.1778    3.1028   55.1692 H       1  ZINC000680410869    0.1200
     39 H39        -3.0401    5.4027   55.3443 H       1  ZINC000680410869    0.1200
     40 H40        -3.4178    6.7344   53.3078 H       1  ZINC000680410869    0.1200
     41 H41        -2.9296    5.7674   51.0965 H       1  ZINC000680410869    0.1200
     42 H42        -0.3893    0.8882   50.0189 H       1  ZINC000680410869    0.0800
     43 H43         1.2973    1.4467   49.8740 H       1  ZINC000680410869    0.1300
@<TRIPOS>BOND
     1     1     2    2
     2     2     3    1
     3     2    11   am
     4     3    10    1
     5     3     4    2
     6     4     5    1
     7     5     6    1
     8     5     9    1
     9     6     7    1
    10     6     8    1
    11     6    26    1
    12     9    10    2
    13     9    27    1
    14    10    28    1
    15    11    25    1
    16    11    12    1
    17    12    13    1
    18    12    29    1
    19    12    30    1
    20    13    14    1
    21    13    31    1
    22    13    32    1
    23    14    15    1
    24    15    16    1
    25    15    17    1
    26    15    25    1
    27    17    18    1
    28    17    33    1
    29    17    34    1
    30    18    19    1
    31    18    35    1
    32    18    36    1
    33    19    24   ar
    34    19    20   ar
    35    20    21   ar
    36    20    37    1
    37    21    22   ar
    38    21    38    1
    39    22    23   ar
    40    22    39    1
    41    23    24   ar
    42    23    40    1
    43    24    41    1
    44    25    42    1
    45    25    43    1
@<TRIPOS>SUBSTRUCTURE
     1 ZINC000680410869        1 TEMP              0 ****  ****    0 ROOT


##########                                Name:    ZINC000277311370
##########                DOCK_Rotatable_Bonds:                   5
##########                         Heavy_Atoms:                  17
##########                    Molecular_Weight:             361.036
##########                DOCK_Rotatable_Bonds:                   5
##########                       Formal_Charge:        -7.45058e-08
##########                     HBond_Acceptors:                   4
##########                        HBond_Donors:                   1
##########                         Heavy_Atoms:                  17
##########                          Grid_Score:          -25.830429
##########                     Grid_vdw_energy:          -26.686653
##########                      Grid_es_energy:            0.856224
##########           Internal_energy_repulsive:            7.936422

@<TRIPOS>MOLECULE
ZINC000277311370
 28 28 1 0 0
SMALL
USER_CHARGES


@<TRIPOS>ATOM
      1 C1        -13.0039   -1.9440   60.7269 C.3     1  ZINC000277311370   -0.1500
      2 C2        -11.6450   -1.3513   60.3484 C.3     1  ZINC000277311370   -0.1000
      3 C3        -10.8873   -0.9607   61.6189 C.3     1  ZINC000277311370   -0.1600
      4 C4        -10.8347   -2.3899   59.5703 C.3     1  ZINC000277311370    0.2500
      5 H5        -10.9451   -3.3657   60.0432 H       1  ZINC000277311370    0.1400
      6 C6         -9.4144   -2.0033   59.5685 C.1     1  ZINC000277311370    0.1900
      7 N7         -8.3183   -1.7050   59.5672 N.1     1  ZINC000277311370   -0.4100
      8 N8        -11.3241   -2.4577   58.1911 N.am    1  ZINC000277311370   -0.7000
      9 C9        -11.0782   -3.5505   57.4416 C.2     1  ZINC000277311370    0.5700
     10 O10       -10.4518   -4.4804   57.9105 O.2     1  ZINC000277311370   -0.4900
     11 C11       -11.5714   -3.6183   56.0468 C.ar    1  ZINC000277311370    0.1100
     12 N12       -10.8576   -3.0735   55.0690 N.ar    1  ZINC000277311370   -0.4300
     13 C13       -11.2598   -3.1123   53.8167 C.ar    1  ZINC000277311370    0.1300
     14 Br14      -10.1960   -2.3169   52.4707 Br      1  ZINC000277311370    0.0200
     15 C15       -12.4531   -3.7288   53.4704 C.ar    1  ZINC000277311370   -0.1100
     16 C16       -13.2293   -4.3102   54.4596 C.ar    1  ZINC000277311370   -0.0400
     17 C17       -12.7783   -4.2586   55.7707 C.ar    1  ZINC000277311370   -0.0900
     18 Br18      -13.7932   -5.0342   57.1651 Br      1  ZINC000277311370    0.0300
     19 H19       -13.5813   -1.2041   61.2813 H       1  ZINC000277311370    0.0700
     20 H20       -13.5437   -2.2223   59.8218 H       1  ZINC000277311370    0.0700
     21 H21       -12.8548   -2.8278   61.3472 H       1  ZINC000277311370    0.0600
     22 H22       -11.7942   -0.4676   59.7281 H       1  ZINC000277311370    0.1000
     23 H23       -10.7382   -1.8445   62.2393 H       1  ZINC000277311370    0.0600
     24 H24        -9.9192   -0.5386   61.3493 H       1  ZINC000277311370    0.0600
     25 H25       -11.4647   -0.2209   62.1734 H       1  ZINC000277311370    0.0700
     26 H26       -11.8252   -1.7160   57.8172 H       1  ZINC000277311370    0.4200
     27 H27       -12.7741   -3.7550   52.4397 H       1  ZINC000277311370    0.1600
     28 H28       -14.1623   -4.7963   54.2152 H       1  ZINC000277311370    0.1700
@<TRIPOS>BOND
     1     1     2    1
     2     1    19    1
     3     1    20    1
     4     1    21    1
     5     2     3    1
     6     2     4    1
     7     2    22    1
     8     3    23    1
     9     3    24    1
    10     3    25    1
    11     4     5    1
    12     4     6    1
    13     4     8    1
    14     6     7    3
    15     8     9   am
    16     8    26    1
    17     9    10    2
    18     9    11    1
    19    11    17   ar
    20    11    12   ar
    21    12    13   ar
    22    13    14    1
    23    13    15   ar
    24    15    16   ar
    25    15    27    1
    26    16    17   ar
    27    16    28    1
    28    17    18    1
@<TRIPOS>SUBSTRUCTURE
     1 ZINC000277311370        1 TEMP              0 ****  ****    0 ROOT


##########                                Name:    ZINC000656860804
##########                DOCK_Rotatable_Bonds:                   2
##########                         Heavy_Atoms:                  19
##########                    Molecular_Weight:             388.068
##########                DOCK_Rotatable_Bonds:                   2
##########                       Formal_Charge:          8.9407e-08
##########                     HBond_Acceptors:                   8
##########                        HBond_Donors:                   1
##########                         Heavy_Atoms:                  19
##########                          Grid_Score:          -25.809868
##########                     Grid_vdw_energy:          -25.881620
##########                      Grid_es_energy:            0.071753
##########           Internal_energy_repulsive:           17.515114

@<TRIPOS>MOLECULE
ZINC000656860804
 28 29 1 0 0
SMALL
USER_CHARGES


@<TRIPOS>ATOM
      1 O1        -11.0020   -4.7873   57.3419 O.2     1  ZINC000656860804   -0.5400
      2 C2        -11.7407   -4.1960   56.5833 C.2     1  ZINC000656860804    0.5100
      3 C3        -11.1404   -3.2039   55.6249 C.3     1  ZINC000656860804    0.1100
      4 N4        -12.1493   -2.8452   54.6170 N.am    1  ZINC000656860804   -1.0000
      5 S5        -11.7577   -2.7190   53.0129 S.o2    1  ZINC000656860804    2.6900
      6 O6        -11.1315   -3.9433   52.6552 O.2     1  ZINC000656860804   -0.9200
      7 O7        -12.9130   -2.2159   52.3562 O.2     1  ZINC000656860804   -0.9300
      8 C8        -10.5229   -1.4696   52.8742 C.ar    1  ZINC000656860804   -0.6500
      9 C9         -9.2656   -1.7909   52.3993 C.ar    1  ZINC000656860804    0.0100
     10 C10        -8.2957   -0.8103   52.2902 C.ar    1  ZINC000656860804   -0.0400
     11 Cl11       -6.7163   -1.2138   51.6931 Cl      1  ZINC000656860804   -0.0200
     12 C12        -8.5852    0.4930   52.6569 C.ar    1  ZINC000656860804    0.0200
     13 Cl13       -7.3690    1.7242   52.5198 Cl      1  ZINC000656860804   -0.0100
     14 C14        -9.8441    0.8138   53.1321 C.ar    1  ZINC000656860804   -0.0900
     15 C15       -10.8144   -0.1662   53.2354 C.ar    1  ZINC000656860804    0.0100
     16 Br16      -12.5353    0.2722   53.8851 Br      1  ZINC000656860804    0.0100
     17 C17       -13.5221   -2.6033   55.0919 C.3     1  ZINC000656860804    0.0900
     18 C18       -14.0404   -3.8929   55.7314 C.3     1  ZINC000656860804    0.0800
     19 N19       -13.0474   -4.4593   56.6333 N.am    1  ZINC000656860804   -0.7100
     20 H20       -10.8340   -2.3103   56.1689 H       1  ZINC000656860804    0.1200
     21 H21       -10.2753   -3.6486   55.1333 H       1  ZINC000656860804    0.1200
     22 H22        -9.0399   -2.8077   52.1137 H       1  ZINC000656860804    0.1700
     23 H23       -10.0703    1.8301   53.4187 H       1  ZINC000656860804    0.1700
     24 H24       -13.5199   -1.8017   55.8305 H       1  ZINC000656860804    0.1000
     25 H25       -14.1589   -2.3279   54.2513 H       1  ZINC000656860804    0.1200
     26 H26       -14.9520   -3.6760   56.2882 H       1  ZINC000656860804    0.1000
     27 H27       -14.2632   -4.6174   54.9480 H       1  ZINC000656860804    0.0800
     28 H28       -13.3586   -5.0660   57.3232 H       1  ZINC000656860804    0.4000
@<TRIPOS>BOND
     1     1     2    2
     2     2    19   am
     3     2     3    1
     4     3     4    1
     5     3    20    1
     6     3    21    1
     7     4     5   am
     8     4    17    1
     9     5     6    2
    10     5     7    2
    11     5     8    1
    12     8    15   ar
    13     8     9   ar
    14     9    10   ar
    15     9    22    1
    16    10    11    1
    17    10    12   ar
    18    12    13    1
    19    12    14   ar
    20    14    15   ar
    21    14    23    1
    22    15    16    1
    23    17    18    1
    24    17    24    1
    25    17    25    1
    26    18    19    1
    27    18    26    1
    28    18    27    1
    29    19    28    1
@<TRIPOS>SUBSTRUCTURE
     1 ZINC000656860804        1 TEMP              0 ****  ****    0 ROOT


##########                                Name:    ZINC001456096501
##########                DOCK_Rotatable_Bonds:                   7
##########                         Heavy_Atoms:                  24
##########                    Molecular_Weight:             333.431
##########                DOCK_Rotatable_Bonds:                   7
##########                       Formal_Charge:          -0.0200003
##########                     HBond_Acceptors:                   6
##########                        HBond_Donors:                   0
##########                         Heavy_Atoms:                  24
##########                          Grid_Score:          -25.801563
##########                     Grid_vdw_energy:          -26.168259
##########                      Grid_es_energy:            0.366695
##########           Internal_energy_repulsive:          126.782646

@<TRIPOS>MOLECULE
ZINC001456096501
 51 52 1 0 0
SMALL
USER_CHARGES


@<TRIPOS>ATOM
      1 C1        -11.4231    2.1867   53.5821 C.3     1  ZINC001456096501    0.0400
      2 O2        -11.2600    0.8578   53.0827 O.3     1  ZINC001456096501   -0.2900
      3 C3         -9.9911    0.4151   52.9159 C.ar    1  ZINC001456096501    0.3700
      4 N4         -8.9750    1.2211   53.1723 N.ar    1  ZINC001456096501   -0.5400
      5 C5         -7.7236    0.8310   53.0240 C.ar    1  ZINC001456096501    0.1600
      6 C6         -7.4183   -0.4465   52.5908 C.ar    1  ZINC001456096501   -0.2200
      7 C7         -8.4431   -1.3322   52.3077 C.ar    1  ZINC001456096501   -0.0200
      8 C8         -9.7626   -0.8981   52.4775 C.ar    1  ZINC001456096501   -0.2000
      9 C9        -10.8932   -1.8014   52.1908 C.2     1  ZINC001456096501    0.5900
     10 O10       -11.3611   -1.8530   51.0698 O.2     1  ZINC001456096501   -0.5100
     11 N11       -11.4075   -2.5695   53.1717 N.am    1  ZINC001456096501   -0.6200
     12 C12       -12.5286   -3.5095   53.0253 C.3     1  ZINC001456096501    0.1000
     13 C13       -12.7808   -4.1409   54.4106 C.3     1  ZINC001456096501   -0.1200
     14 C14       -12.1585   -3.1047   55.3834 C.3     1  ZINC001456096501   -0.1200
     15 H15       -12.8539   -2.2895   55.5830 H       1  ZINC001456096501    0.0900
     16 C16       -11.7135   -3.7734   56.6857 C.3     1  ZINC001456096501    0.1200
     17 N17       -11.6913   -2.7798   57.7620 N.am    1  ZINC001456096501   -0.6200
     18 C18       -10.5129   -1.9300   57.9501 C.3     1  ZINC001456096501    0.0600
     19 C19       -12.7551   -2.6472   58.5789 C.2     1  ZINC001456096501    0.5200
     20 O20       -13.7306   -3.3507   58.4232 O.2     1  ZINC001456096501   -0.5300
     21 C21       -12.7321   -1.6251   59.6860 C.3     1  ZINC001456096501   -0.0800
     22 C22       -11.7870   -2.0943   60.7939 C.3     1  ZINC001456096501   -0.1300
     23 C23       -12.2438   -0.2848   59.1327 C.3     1  ZINC001456096501   -0.1500
     24 C24       -14.1424   -1.4583   60.2555 C.3     1  ZINC001456096501   -0.1700
     25 C25       -10.9349   -2.6111   54.5675 C.3     1  ZINC001456096501    0.1200
     26 H26       -10.9538    2.2666   54.5627 H       1  ZINC001456096501    0.0600
     27 H27       -10.9544    2.8927   52.8964 H       1  ZINC001456096501    0.0600
     28 H28       -12.4856    2.4147   53.6681 H       1  ZINC001456096501    0.1000
     29 H29        -6.9232    1.5217   53.2443 H       1  ZINC001456096501    0.1700
     30 H30        -6.3884   -0.7502   52.4741 H       1  ZINC001456096501    0.1500
     31 H31        -8.2298   -2.3349   51.9677 H       1  ZINC001456096501    0.1500
     32 H32       -13.4191   -2.9756   52.6935 H       1  ZINC001456096501    0.0700
     33 H33       -12.2697   -4.2860   52.3056 H       1  ZINC001456096501    0.0700
     34 H34       -13.8494   -4.2504   54.5957 H       1  ZINC001456096501    0.0900
     35 H35       -12.2734   -5.1020   54.4945 H       1  ZINC001456096501    0.0800
     36 H36       -12.4113   -4.5707   56.9415 H       1  ZINC001456096501    0.0800
     37 H37       -10.7153   -4.1917   56.5567 H       1  ZINC001456096501    0.0900
     38 H38       -10.6458   -0.9978   57.4012 H       1  ZINC001456096501    0.0600
     39 H39       -10.3875   -1.7124   59.0108 H       1  ZINC001456096501    0.0900
     40 H40        -9.6286   -2.4476   57.5784 H       1  ZINC001456096501    0.0700
     41 H41       -10.7823   -2.2132   60.3882 H       1  ZINC001456096501    0.0600
     42 H42       -11.7704   -1.3551   61.5946 H       1  ZINC001456096501    0.0600
     43 H43       -12.1349   -3.0492   61.1880 H       1  ZINC001456096501    0.0600
     44 H44       -12.8368   -0.0146   58.2590 H       1  ZINC001456096501    0.0700
     45 H45       -12.3515    0.4847   59.8971 H       1  ZINC001456096501    0.0700
     46 H46       -11.1951   -0.3697   58.8479 H       1  ZINC001456096501    0.0600
     47 H47       -14.4903   -2.4132   60.6497 H       1  ZINC001456096501    0.0600
     48 H48       -14.1258   -0.7190   61.0563 H       1  ZINC001456096501    0.0700
     49 H49       -14.8157   -1.1240   59.4662 H       1  ZINC001456096501    0.0800
     50 H50       -10.1034   -3.3081   54.6714 H       1  ZINC001456096501    0.0800
     51 H51       -10.6385   -1.6142   54.8939 H       1  ZINC001456096501    0.0700
@<TRIPOS>BOND
     1     1     2    1
     2     1    26    1
     3     1    27    1
     4     1    28    1
     5     2     3    1
     6     3     8   ar
     7     3     4   ar
     8     4     5   ar
     9     5     6   ar
    10     5    29    1
    11     6     7   ar
    12     6    30    1
    13     7     8   ar
    14     7    31    1
    15     8     9    1
    16     9    10    2
    17     9    11   am
    18    11    25    1
    19    11    12    1
    20    12    13    1
    21    12    32    1
    22    12    33    1
    23    13    14    1
    24    13    34    1
    25    13    35    1
    26    14    15    1
    27    14    16    1
    28    14    25    1
    29    16    17    1
    30    16    36    1
    31    16    37    1
    32    17    18    1
    33    17    19   am
    34    18    38    1
    35    18    39    1
    36    18    40    1
    37    19    20    2
    38    19    21    1
    39    21    22    1
    40    21    23    1
    41    21    24    1
    42    22    41    1
    43    22    42    1
    44    22    43    1
    45    23    44    1
    46    23    45    1
    47    23    46    1
    48    24    47    1
    49    24    48    1
    50    24    49    1
    51    25    50    1
    52    25    51    1
@<TRIPOS>SUBSTRUCTURE
     1 ZINC001456096501        1 TEMP              0 ****  ****    0 ROOT


##########                                Name:    ZINC000464706598
##########                DOCK_Rotatable_Bonds:                   4
##########                         Heavy_Atoms:                  26
##########                    Molecular_Weight:             412.286
##########                DOCK_Rotatable_Bonds:                   4
##########                       Formal_Charge:           0.0100001
##########                     HBond_Acceptors:                   5
##########                        HBond_Donors:                   0
##########                         Heavy_Atoms:                  26
##########                          Grid_Score:          -25.769609
##########                     Grid_vdw_energy:          -24.930759
##########                      Grid_es_energy:           -0.838851
##########           Internal_energy_repulsive:           58.772007

@<TRIPOS>MOLECULE
ZINC000464706598
 44 47 1 0 0
SMALL
USER_CHARGES


@<TRIPOS>ATOM
      1 O1          2.5563    2.9186   45.8191 O.2     1  ZINC000464706598   -0.5000
      2 C2          2.4112    1.7596   46.1575 C.2     1  ZINC000464706598    0.5900
      3 C3          3.4636    0.7693   45.8662 C.2     1  ZINC000464706598   -0.2800
      4 C4          3.6765    0.1304   44.6608 C.2     1  ZINC000464706598    0.1300
      5 N5          4.7318   -0.6885   44.8211 N.pl3   1  ZINC000464706598   -0.3100
      6 C6          5.2794   -1.5217   43.8359 C.ar    1  ZINC000464706598    0.1700
      7 C7          6.3724   -2.3249   44.1332 C.ar    1  ZINC000464706598   -0.1300
      8 C8          6.9098   -3.1453   43.1608 C.ar    1  ZINC000464706598   -0.0600
      9 C9          6.3603   -3.1669   41.8911 C.ar    1  ZINC000464706598   -0.1000
     10 Br10        7.0991   -4.2909   40.5619 Br      1  ZINC000464706598   -0.0400
     11 C11         5.2709   -2.3679   41.5924 C.ar    1  ZINC000464706598   -0.0700
     12 C12         4.7265   -1.5496   42.5626 C.ar    1  ZINC000464706598   -0.1100
     13 N13         5.1908   -0.5673   46.1375 N.2     1  ZINC000464706598   -0.2800
     14 C14         4.4472    0.3009   46.7665 C.2     1  ZINC000464706598    0.0700
     15 N15         1.2907    1.3816   46.8041 N.am    1  ZINC000464706598   -0.6100
     16 C16         1.0954   -0.0136   47.2290 C.3     1  ZINC000464706598    0.0400
     17 C17        -0.2817   -0.4790   46.7422 C.3     1  ZINC000464706598    0.0500
     18 O18        -1.2732    0.4588   47.1678 O.3     1  ZINC000464706598   -0.3700
     19 C19        -1.1082    1.7713   46.6255 C.3     1  ZINC000464706598    0.0500
     20 C20         0.2291    2.3532   47.1113 C.3     1  ZINC000464706598    0.1600
     21 H21         0.1842    2.5287   48.1862 H       1  ZINC000464706598    0.0900
     22 C22         0.5077    3.6503   46.3966 C.ar    1  ZINC000464706598   -0.0500
     23 C23         0.1490    3.7995   45.0699 C.ar    1  ZINC000464706598   -0.1000
     24 C24         0.4045    4.9893   44.4143 C.ar    1  ZINC000464706598   -0.1100
     25 C25         1.0185    6.0302   45.0855 C.ar    1  ZINC000464706598   -0.1200
     26 C26         1.3764    5.8814   46.4124 C.ar    1  ZINC000464706598   -0.1100
     27 C27         1.1169    4.6931   47.0692 C.ar    1  ZINC000464706598   -0.1000
     28 H28         3.1015    0.2630   43.7564 H       1  ZINC000464706598    0.1900
     29 H29         6.8021   -2.3079   45.1239 H       1  ZINC000464706598    0.1400
     30 H30         7.7599   -3.7701   43.3915 H       1  ZINC000464706598    0.1500
     31 H31         4.8437   -2.3868   40.6007 H       1  ZINC000464706598    0.1500
     32 H32         3.8759   -0.9264   42.3291 H       1  ZINC000464706598    0.1500
     33 H33         4.5596    0.6038   47.7970 H       1  ZINC000464706598    0.2100
     34 H34         1.8711   -0.6425   46.7920 H       1  ZINC000464706598    0.1200
     35 H35         1.1408   -0.0760   48.3163 H       1  ZINC000464706598    0.0800
     36 H36        -0.2817   -0.5402   45.6540 H       1  ZINC000464706598    0.0600
     37 H37        -0.5041   -1.4598   47.1627 H       1  ZINC000464706598    0.1100
     38 H38        -1.1111    1.7185   45.5368 H       1  ZINC000464706598    0.0600
     39 H39        -1.9252    2.4096   46.9619 H       1  ZINC000464706598    0.1100
     40 H40        -0.3307    2.9862   44.5456 H       1  ZINC000464706598    0.1100
     41 H41         0.1249    5.1055   43.3776 H       1  ZINC000464706598    0.1200
     42 H42         1.2188    6.9595   44.5731 H       1  ZINC000464706598    0.1200
     43 H43         1.8564    6.6945   46.9367 H       1  ZINC000464706598    0.1200
     44 H44         1.3966    4.5769   48.1059 H       1  ZINC000464706598    0.1100
@<TRIPOS>BOND
     1     1     2    2
     2     2     3    1
     3     2    15   am
     4     3    14    1
     5     3     4    2
     6     4     5    1
     7     4    28    1
     8     5     6    1
     9     5    13    1
    10     6    12   ar
    11     6     7   ar
    12     7     8   ar
    13     7    29    1
    14     8     9   ar
    15     8    30    1
    16     9    10    1
    17     9    11   ar
    18    11    12   ar
    19    11    31    1
    20    12    32    1
    21    13    14    2
    22    14    33    1
    23    15    20    1
    24    15    16    1
    25    16    17    1
    26    16    34    1
    27    16    35    1
    28    17    18    1
    29    17    36    1
    30    17    37    1
    31    18    19    1
    32    19    20    1
    33    19    38    1
    34    19    39    1
    35    20    21    1
    36    20    22    1
    37    22    27   ar
    38    22    23   ar
    39    23    24   ar
    40    23    40    1
    41    24    25   ar
    42    24    41    1
    43    25    26   ar
    44    25    42    1
    45    26    27   ar
    46    26    43    1
    47    27    44    1
@<TRIPOS>SUBSTRUCTURE
     1 ZINC000464706598        1 TEMP              0 ****  ****    0 ROOT


##########                                Name:    ZINC000616491533
##########                DOCK_Rotatable_Bonds:                   4
##########                         Heavy_Atoms:                  27
##########                    Molecular_Weight:             375.418
##########                DOCK_Rotatable_Bonds:                   4
##########                       Formal_Charge:           0.0299996
##########                     HBond_Acceptors:                   7
##########                        HBond_Donors:                   0
##########                         Heavy_Atoms:                  27
##########                          Grid_Score:          -25.713682
##########                     Grid_vdw_energy:          -25.172132
##########                      Grid_es_energy:           -0.541549
##########           Internal_energy_repulsive:           13.071063

@<TRIPOS>MOLECULE
ZINC000616491533
 50 53 1 0 0
SMALL
USER_CHARGES


@<TRIPOS>ATOM
      1 C1        -14.2868   -4.3350   54.9884 C.3     1  ZINC000616491533   -0.1700
      2 C2        -14.6291   -2.9119   55.4339 C.3     1  ZINC000616491533    0.1400
      3 H3        -15.5825   -2.6076   55.0019 H       1  ZINC000616491533    0.0800
      4 C4        -14.7070   -2.8486   56.9754 C.3     1  ZINC000616491533   -0.1200
      5 C5        -13.3190   -2.3004   57.3673 C.3     1  ZINC000616491533   -0.0700
      6 C6        -13.0001   -1.3362   56.2088 C.3     1  ZINC000616491533    0.0900
      7 N7        -13.5687   -1.9859   55.0080 N.am    1  ZINC000616491533   -0.6100
      8 C8        -13.1771   -1.7669   53.7372 C.2     1  ZINC000616491533    0.6100
      9 O9        -13.7158   -2.3623   52.8238 O.2     1  ZINC000616491533   -0.5200
     10 C10       -12.0958   -0.8058   53.4543 C.2     1  ZINC000616491533   -0.2400
     11 C11       -10.7689   -1.1097   53.2234 C.2     1  ZINC000616491533    0.0700
     12 C12       -10.1573   -2.4869   53.2143 C.3     1  ZINC000616491533    0.3400
     13 F13       -10.6277   -3.2134   54.3135 F       1  ZINC000616491533   -0.1900
     14 F14       -10.5119   -3.1468   52.0329 F       1  ZINC000616491533   -0.1600
     15 N15       -10.1227    0.0505   53.0075 N.pl3   1  ZINC000616491533   -0.2900
     16 C16        -8.7550    0.1878   52.7340 C.ar    1  ZINC000616491533    0.1300
     17 C17        -8.0206    1.1946   53.3465 C.ar    1  ZINC000616491533   -0.1000
     18 C18        -6.6730    1.3273   53.0749 C.ar    1  ZINC000616491533   -0.1000
     19 C19        -6.0551    0.4591   52.1936 C.ar    1  ZINC000616491533   -0.1000
     20 C20        -6.7836   -0.5444   51.5820 C.ar    1  ZINC000616491533   -0.1000
     21 C21        -8.1303   -0.6862   51.8543 C.ar    1  ZINC000616491533   -0.0900
     22 N22       -11.0470    1.0968   53.1024 N.2     1  ZINC000616491533   -0.2600
     23 C23       -12.2245    0.5986   53.3625 C.2     1  ZINC000616491533    0.0700
     24 C24       -13.3919   -1.5493   58.6889 C.3     1  ZINC000616491533   -0.1400
     25 C25       -11.9904   -1.0591   59.0695 C.3     1  ZINC000616491533    0.0600
     26 O26       -11.0966   -2.1735   59.1139 O.3     1  ZINC000616491533   -0.3800
     27 C27       -10.9423   -2.8530   57.8661 C.3     1  ZINC000616491533    0.0600
     28 C28       -12.2958   -3.4250   57.4302 C.3     1  ZINC000616491533   -0.1500
     29 H29       -13.3270   -4.6279   55.4138 H       1  ZINC000616491533    0.0600
     30 H30       -15.0614   -5.0199   55.3334 H       1  ZINC000616491533    0.0600
     31 H31       -14.2284   -4.3709   53.9005 H       1  ZINC000616491533    0.0800
     32 H32       -15.4954   -2.1668   57.2943 H       1  ZINC000616491533    0.0800
     33 H33       -14.8618   -3.8425   57.3952 H       1  ZINC000616491533    0.0900
     34 H34       -13.4757   -0.3700   56.3771 H       1  ZINC000616491533    0.0800
     35 H35       -11.9221   -1.2159   56.1008 H       1  ZINC000616491533    0.0800
     36 H36        -9.0721   -2.4029   53.2719 H       1  ZINC000616491533    0.1400
     37 H37        -8.5029    1.8733   54.0343 H       1  ZINC000616491533    0.1300
     38 H38        -6.1013    2.1102   53.5510 H       1  ZINC000616491533    0.1400
     39 H39        -5.0013    0.5655   51.9822 H       1  ZINC000616491533    0.1300
     40 H40        -6.2983   -1.2210   50.8942 H       1  ZINC000616491533    0.1400
     41 H41        -8.6989   -1.4702   51.3763 H       1  ZINC000616491533    0.1300
     42 H42       -13.1371    1.1616   53.4913 H       1  ZINC000616491533    0.2100
     43 H43       -14.0608   -0.6949   58.5857 H       1  ZINC000616491533    0.0800
     44 H44       -13.7680   -2.2151   59.4657 H       1  ZINC000616491533    0.0800
     45 H45       -11.6414   -0.3421   58.3264 H       1  ZINC000616491533    0.0500
     46 H46       -12.0254   -0.5814   60.0486 H       1  ZINC000616491533    0.1000
     47 H47       -10.5836   -2.1523   57.1121 H       1  ZINC000616491533    0.0500
     48 H48       -10.2239   -3.6648   57.9803 H       1  ZINC000616491533    0.1000
     49 H49       -12.6230   -4.1749   58.1504 H       1  ZINC000616491533    0.0800
     50 H50       -12.1975   -3.8831   56.4461 H       1  ZINC000616491533    0.0800
@<TRIPOS>BOND
     1     1     2    1
     2     1    29    1
     3     1    30    1
     4     1    31    1
     5     2     3    1
     6     2     7    1
     7     2     4    1
     8     4     5    1
     9     4    32    1
    10     4    33    1
    11     5    28    1
    12     5     6    1
    13     5    24    1
    14     6     7    1
    15     6    34    1
    16     6    35    1
    17     7     8   am
    18     8     9    2
    19     8    10    1
    20    10    23    1
    21    10    11    2
    22    11    12    1
    23    11    15    1
    24    12    13    1
    25    12    14    1
    26    12    36    1
    27    15    16    1
    28    15    22    1
    29    16    21   ar
    30    16    17   ar
    31    17    18   ar
    32    17    37    1
    33    18    19   ar
    34    18    38    1
    35    19    20   ar
    36    19    39    1
    37    20    21   ar
    38    20    40    1
    39    21    41    1
    40    22    23    2
    41    23    42    1
    42    24    25    1
    43    24    43    1
    44    24    44    1
    45    25    26    1
    46    25    45    1
    47    25    46    1
    48    26    27    1
    49    27    28    1
    50    27    47    1
    51    27    48    1
    52    28    49    1
    53    28    50    1
@<TRIPOS>SUBSTRUCTURE
     1 ZINC000616491533        1 TEMP              0 ****  ****    0 ROOT


##########                                Name:    ZINC000840649129
##########                DOCK_Rotatable_Bonds:                   8
##########                         Heavy_Atoms:                  26
##########                    Molecular_Weight:             376.839
##########                DOCK_Rotatable_Bonds:                   8
##########                       Formal_Charge:          -0.0199998
##########                     HBond_Acceptors:                   7
##########                        HBond_Donors:                   3
##########                         Heavy_Atoms:                  26
##########                          Grid_Score:          -25.706963
##########                     Grid_vdw_energy:          -24.625206
##########                      Grid_es_energy:           -1.081756
##########           Internal_energy_repulsive:           12.354219

@<TRIPOS>MOLECULE
ZINC000840649129
 47 48 1 0 0
SMALL
USER_CHARGES


@<TRIPOS>ATOM
      1 C1        -11.1845   -1.5170   51.8841 C.3     1  ZINC000840649129    0.0200
      2 O2        -10.3338   -1.8593   52.9800 O.3     1  ZINC000840649129   -0.2900
      3 C3         -9.8041   -0.8328   53.6929 C.ar    1  ZINC000840649129    0.1400
      4 C4         -8.7122   -0.1350   53.1998 C.ar    1  ZINC000840649129   -0.1700
      5 C5         -8.1720    0.9092   53.9232 C.ar    1  ZINC000840649129   -0.1200
      6 C6         -8.7178    1.2699   55.1507 C.ar    1  ZINC000840649129    0.1700
      7 N7         -8.1632    2.3301   55.8769 N.pl3   1  ZINC000840649129   -0.8800
      8 C8         -9.8085    0.5832   55.6554 C.ar    1  ZINC000840649129   -0.1000
      9 C9        -10.3633   -0.4720   54.9267 C.ar    1  ZINC000840649129   -0.1200
     10 C10       -11.5252   -1.2081   55.4568 C.2     1  ZINC000840649129    0.5100
     11 O11       -12.6430   -0.9482   55.0573 O.2     1  ZINC000840649129   -0.4800
     12 O12       -11.3477   -2.1692   56.3845 O.3     1  ZINC000840649129   -0.3200
     13 C13       -12.4105   -2.3509   57.3571 C.3     1  ZINC000840649129    0.0800
     14 H14       -13.2856   -1.7780   57.0503 H       1  ZINC000840649129    0.1200
     15 C15       -11.9435   -1.8705   58.7070 C.2     1  ZINC000840649129    0.5200
     16 O16       -12.2566   -2.4785   59.7087 O.2     1  ZINC000840649129   -0.4900
     17 N17       -11.1779   -0.7654   58.8010 N.am    1  ZINC000840649129   -0.6600
     18 C18       -10.7440   -0.3191   60.0549 C.ar    1  ZINC000840649129    0.1600
     19 C19       -11.5616    0.4981   60.8234 C.ar    1  ZINC000840649129   -0.1400
     20 C20       -11.1309    0.9367   62.0607 C.ar    1  ZINC000840649129   -0.0900
     21 C21        -9.8870    0.5628   62.5344 C.ar    1  ZINC000840649129   -0.1300
     22 C22        -9.0692   -0.2510   61.7715 C.ar    1  ZINC000840649129   -0.0900
     23 C23        -9.4961   -0.6979   60.5357 C.ar    1  ZINC000840649129   -0.0700
     24 Cl24       -8.4696   -1.7198   59.5787 Cl      1  ZINC000840649129   -0.0700
     25 C25       -12.7760   -3.8342   57.4420 C.3     1  ZINC000840649129   -0.1100
     26 C26       -13.5656   -4.2371   56.1950 C.3     1  ZINC000840649129   -0.1600
     27 C27       -11.4975   -4.6703   57.5283 C.3     1  ZINC000840649129   -0.1500
     28 H28       -11.5392   -2.4277   51.4012 H       1  ZINC000840649129    0.1000
     29 H29       -12.0366   -0.9445   52.2504 H       1  ZINC000840649129    0.0600
     30 H30       -10.6266   -0.9179   51.1643 H       1  ZINC000840649129    0.0600
     31 H31        -8.2831   -0.4094   52.2476 H       1  ZINC000840649129    0.1400
     32 H32        -7.3209    1.4486   53.5343 H       1  ZINC000840649129    0.1300
     33 H33        -7.3991    2.8124   55.5241 H       1  ZINC000840649129    0.4000
     34 H34        -8.5429    2.5826   56.7330 H       1  ZINC000840649129    0.4000
     35 H35       -10.2317    0.8645   56.6084 H       1  ZINC000840649129    0.1400
     36 H36       -10.9274   -0.2792   57.9999 H       1  ZINC000840649129    0.4200
     37 H37       -12.5333    0.7912   60.4543 H       1  ZINC000840649129    0.1700
     38 H38       -11.7667    1.5729   62.6587 H       1  ZINC000840649129    0.1300
     39 H39        -9.5531    0.9072   63.5019 H       1  ZINC000840649129    0.1300
     40 H40        -8.0979   -0.5411   62.1442 H       1  ZINC000840649129    0.1400
     41 H41       -13.3845   -4.0082   58.3294 H       1  ZINC000840649129    0.0900
     42 H42       -13.0099   -3.9465   55.3034 H       1  ZINC000840649129    0.0700
     43 H43       -13.7163   -5.3166   56.1934 H       1  ZINC000840649129    0.0800
     44 H44       -14.5331   -3.7352   56.1998 H       1  ZINC000840649129    0.0600
     45 H45       -10.9349   -4.3832   58.4167 H       1  ZINC000840649129    0.0500
     46 H46       -11.7578   -5.7270   57.5888 H       1  ZINC000840649129    0.0600
     47 H47       -10.8889   -4.4962   56.6409 H       1  ZINC000840649129    0.0700
@<TRIPOS>BOND
     1     1     2    1
     2     1    28    1
     3     1    29    1
     4     1    30    1
     5     2     3    1
     6     3     9   ar
     7     3     4   ar
     8     4     5   ar
     9     4    31    1
    10     5     6   ar
    11     5    32    1
    12     6     7    1
    13     6     8   ar
    14     7    33    1
    15     7    34    1
    16     8     9   ar
    17     8    35    1
    18     9    10    1
    19    10    11    2
    20    10    12    1
    21    12    13    1
    22    13    14    1
    23    13    15    1
    24    13    25    1
    25    15    16    2
    26    15    17   am
    27    17    18    1
    28    17    36    1
    29    18    23   ar
    30    18    19   ar
    31    19    20   ar
    32    19    37    1
    33    20    21   ar
    34    20    38    1
    35    21    22   ar
    36    21    39    1
    37    22    23   ar
    38    22    40    1
    39    23    24    1
    40    25    26    1
    41    25    27    1
    42    25    41    1
    43    26    42    1
    44    26    43    1
    45    26    44    1
    46    27    45    1
    47    27    46    1
    48    27    47    1
@<TRIPOS>SUBSTRUCTURE
     1 ZINC000840649129        1 TEMP              0 ****  ****    0 ROOT


##########                                Name:    ZINC000794876634
##########                DOCK_Rotatable_Bonds:                   4
##########                         Heavy_Atoms:                  24
##########                    Molecular_Weight:             389.249
##########                DOCK_Rotatable_Bonds:                   4
##########                       Formal_Charge:        -4.47035e-08
##########                     HBond_Acceptors:                   5
##########                        HBond_Donors:                   0
##########                         Heavy_Atoms:                  24
##########                          Grid_Score:          -25.694597
##########                     Grid_vdw_energy:          -25.233078
##########                      Grid_es_energy:           -0.461519
##########           Internal_energy_repulsive:           16.664841

@<TRIPOS>MOLECULE
ZINC000794876634
 41 43 1 0 0
SMALL
USER_CHARGES


@<TRIPOS>ATOM
      1 C1        -14.0719   -0.9157   48.5026 C.3     1  ZINC000794876634    0.0200
      2 O2        -14.7762   -0.5633   49.6950 O.3     1  ZINC000794876634   -0.3000
      3 C3        -14.0971   -0.6693   50.8663 C.ar    1  ZINC000794876634    0.1300
      4 C4        -12.7870   -1.1301   50.8673 C.ar    1  ZINC000794876634   -0.1800
      5 C5        -12.0927   -1.2405   52.0515 C.ar    1  ZINC000794876634   -0.0400
      6 C6        -10.6712   -1.7409   52.0482 C.3     1  ZINC000794876634   -0.1200
      7 C7        -12.7086   -0.8869   53.2594 C.ar    1  ZINC000794876634   -0.1000
      8 C8        -11.9726   -1.0027   54.5216 C.2     1  ZINC000794876634    0.0600
      9 C9        -12.1112   -2.1208   55.2922 C.2     1  ZINC000794876634   -0.1700
     10 C10       -12.9478   -3.3018   55.0187 C.2     1  ZINC000794876634    0.5700
     11 O11       -13.6581   -3.4658   54.0435 O.2     1  ZINC000794876634   -0.4900
     12 N12       -12.7886   -4.1664   56.0346 N.am    1  ZINC000794876634   -0.5300
     13 C13       -13.4602   -5.4654   56.1239 C.3     1  ZINC000794876634    0.0800
     14 C14       -11.9089   -3.6768   56.9877 C.ar    1  ZINC000794876634    0.3700
     15 N15       -11.4743   -4.1938   58.1302 N.ar    1  ZINC000794876634   -0.4900
     16 C16       -10.6228   -3.5531   58.9053 C.ar    1  ZINC000794876634    0.1800
     17 C17       -10.1356   -2.3031   58.5670 C.ar    1  ZINC000794876634   -0.1800
     18 Br18       -8.9140   -1.4115   59.7022 Br      1  ZINC000794876634   -0.0200
     19 C19       -10.5550   -1.7128   57.3836 C.ar    1  ZINC000794876634    0.0000
     20 C20       -11.4492   -2.4148   56.5822 C.ar    1  ZINC000794876634   -0.1400
     21 C21       -14.0311   -0.4215   53.2564 C.ar    1  ZINC000794876634   -0.1400
     22 C22       -14.7162   -0.3097   52.0639 C.ar    1  ZINC000794876634    0.0900
     23 O23       -15.9990    0.1418   52.0571 O.3     1  ZINC000794876634   -0.3000
     24 C24       -16.5519    0.5444   53.3118 C.3     1  ZINC000794876634    0.0200
     25 H25       -14.7276   -0.7860   47.6417 H       1  ZINC000794876634    0.1000
     26 H26       -13.1979   -0.2735   48.3937 H       1  ZINC000794876634    0.0600
     27 H27       -13.7530   -1.9563   48.5631 H       1  ZINC000794876634    0.0600
     28 H28       -12.3114   -1.4029   49.9368 H       1  ZINC000794876634    0.1400
     29 H29        -9.9894   -0.8976   51.9385 H       1  ZINC000794876634    0.0800
     30 H30       -10.4649   -2.2553   52.9868 H       1  ZINC000794876634    0.0700
     31 H31       -10.5312   -2.4318   51.2169 H       1  ZINC000794876634    0.0700
     32 H32       -11.3207   -0.2035   54.8419 H       1  ZINC000794876634    0.1500
     33 H33       -14.0948   -5.6070   55.2490 H       1  ZINC000794876634    0.0900
     34 H34       -12.7136   -6.2585   56.1635 H       1  ZINC000794876634    0.0800
     35 H35       -14.0720   -5.4968   57.0255 H       1  ZINC000794876634    0.0800
     36 H36       -10.2979   -4.0143   59.8263 H       1  ZINC000794876634    0.1800
     37 H37       -10.1940   -0.7379   57.0909 H       1  ZINC000794876634    0.1600
     38 H38       -14.5109   -0.1476   54.1844 H       1  ZINC000794876634    0.1400
     39 H39       -16.6197   -0.3195   53.9728 H       1  ZINC000794876634    0.0500
     40 H40       -15.9106    1.2999   53.7657 H       1  ZINC000794876634    0.0600
     41 H41       -17.5471    0.9601   53.1537 H       1  ZINC000794876634    0.1100
@<TRIPOS>BOND
     1     1     2    1
     2     1    25    1
     3     1    26    1
     4     1    27    1
     5     2     3    1
     6     3    22   ar
     7     3     4   ar
     8     4     5   ar
     9     4    28    1
    10     5     6    1
    11     5     7   ar
    12     6    29    1
    13     6    30    1
    14     6    31    1
    15     7     8    1
    16     7    21   ar
    17     8     9    2
    18     8    32    1
    19     9    20    1
    20     9    10    1
    21    10    11    2
    22    10    12   am
    23    12    13    1
    24    12    14    1
    25    13    33    1
    26    13    34    1
    27    13    35    1
    28    14    20   ar
    29    14    15   ar
    30    15    16   ar
    31    16    17   ar
    32    16    36    1
    33    17    18    1
    34    17    19   ar
    35    19    20   ar
    36    19    37    1
    37    21    22   ar
    38    21    38    1
    39    22    23    1
    40    23    24    1
    41    24    39    1
    42    24    40    1
    43    24    41    1
@<TRIPOS>SUBSTRUCTURE
     1 ZINC000794876634        1 TEMP              0 ****  ****    0 ROOT


##########                                Name:    ZINC000179743483
##########                DOCK_Rotatable_Bonds:                   5
##########                         Heavy_Atoms:                  23
##########                    Molecular_Weight:             393.347
##########                DOCK_Rotatable_Bonds:                   5
##########                       Formal_Charge:          -0.0199999
##########                     HBond_Acceptors:                   4
##########                        HBond_Donors:                   0
##########                         Heavy_Atoms:                  23
##########                          Grid_Score:          -25.659559
##########                     Grid_vdw_energy:          -25.547482
##########                      Grid_es_energy:           -0.112077
##########           Internal_energy_repulsive:           20.178349

@<TRIPOS>MOLECULE
ZINC000179743483
 44 46 1 0 0
SMALL
USER_CHARGES


@<TRIPOS>ATOM
      1 C1          3.5925   -0.8531   51.2328 C.3     1  ZINC000179743483   -0.1400
      2 C2          2.7703    0.3708   50.8239 C.3     1  ZINC000179743483   -0.1000
      3 H3          1.8488    0.4003   51.4054 H       1  ZINC000179743483    0.1000
      4 C4          3.5810    1.6413   51.0883 C.3     1  ZINC000179743483   -0.0700
      5 C5          3.5883    1.9339   52.5666 C.ar    1  ZINC000179743483   -0.0600
      6 C6          4.7831    1.9500   53.2619 C.ar    1  ZINC000179743483   -0.1100
      7 C7          4.7902    2.2188   54.6177 C.ar    1  ZINC000179743483   -0.0900
      8 C8          3.6018    2.4718   55.2788 C.ar    1  ZINC000179743483   -0.0900
      9 Br9         3.6111    2.8403   57.1335 Br      1  ZINC000179743483   -0.0500
     10 C10         2.4067    2.4557   54.5826 C.ar    1  ZINC000179743483   -0.0900
     11 C11         2.4009    2.1919   53.2258 C.ar    1  ZINC000179743483   -0.1100
     12 C12         2.4361    0.2844   49.3571 C.2     1  ZINC000179743483    0.5200
     13 O13         3.0443   -0.4823   48.6407 O.2     1  ZINC000179743483   -0.5300
     14 N14         1.4613    1.0590   48.8411 N.am    1  ZINC000179743483   -0.6100
     15 C15         1.1242    0.9858   47.4129 C.3     1  ZINC000179743483    0.1000
     16 C16        -0.3792    0.7266   47.2738 C.3     1  ZINC000179743483   -0.1400
     17 C17        -1.1513    1.7976   48.0477 C.3     1  ZINC000179743483   -0.1100
     18 C18        -0.7833    1.7221   49.5313 C.3     1  ZINC000179743483   -0.0200
     19 H19        -1.0181    0.7289   49.9142 H       1  ZINC000179743483    0.0900
     20 C20        -1.5687    2.7550   50.2976 C.2     1  ZINC000179743483    0.0500
     21 N21        -1.6144    4.0118   50.0089 N.2     1  ZINC000179743483   -0.4700
     22 C22        -2.3528    4.7799   50.7846 C.2     1  ZINC000179743483    0.0400
     23 C23        -2.9639    4.1352   51.7829 C.2     1  ZINC000179743483   -0.2600
     24 S24        -2.5341    2.4301   51.6708 S.3     1  ZINC000179743483    0.1300
     25 C25         0.7114    1.9882   49.6973 C.3     1  ZINC000179743483    0.1200
     26 H26         4.4761   -0.9255   50.5986 H       1  ZINC000179743483    0.0700
     27 H27         3.8995   -0.7533   52.2738 H       1  ZINC000179743483    0.0700
     28 H28         2.9875   -1.7523   51.1170 H       1  ZINC000179743483    0.0600
     29 H29         4.6043    1.4982   50.7412 H       1  ZINC000179743483    0.0900
     30 H30         3.1299    2.4777   50.5545 H       1  ZINC000179743483    0.0800
     31 H31         5.7108    1.7520   52.7458 H       1  ZINC000179743483    0.1300
     32 H32         5.7236    2.2309   55.1610 H       1  ZINC000179743483    0.1300
     33 H33         1.4786    2.6531   55.0983 H       1  ZINC000179743483    0.1300
     34 H34         1.4678    2.1794   52.6821 H       1  ZINC000179743483    0.1300
     35 H35         1.3788    1.9286   46.9287 H       1  ZINC000179743483    0.0700
     36 H36         1.6800    0.1718   46.9476 H       1  ZINC000179743483    0.0900
     37 H37        -0.6592    0.7657   46.2211 H       1  ZINC000179743483    0.0800
     38 H38        -0.6177   -0.2572   47.6780 H       1  ZINC000179743483    0.0700
     39 H39        -0.8934    2.7830   47.6595 H       1  ZINC000179743483    0.0800
     40 H40        -2.2218    1.6299   47.9301 H       1  ZINC000179743483    0.0700
     41 H41        -2.4552    5.8434   50.6265 H       1  ZINC000179743483    0.1800
     42 H42        -3.6101    4.5802   52.5251 H       1  ZINC000179743483    0.1800
     43 H43         0.9959    1.8379   50.7388 H       1  ZINC000179743483    0.0900
     44 H44         0.9356    3.0123   49.3991 H       1  ZINC000179743483    0.0800
@<TRIPOS>BOND
     1     1     2    1
     2     1    26    1
     3     1    27    1
     4     1    28    1
     5     2     3    1
     6     2     4    1
     7     2    12    1
     8     4     5    1
     9     4    29    1
    10     4    30    1
    11     5    11   ar
    12     5     6   ar
    13     6     7   ar
    14     6    31    1
    15     7     8   ar
    16     7    32    1
    17     8     9    1
    18     8    10   ar
    19    10    11   ar
    20    10    33    1
    21    11    34    1
    22    12    13    2
    23    12    14   am
    24    14    25    1
    25    14    15    1
    26    15    16    1
    27    15    35    1
    28    15    36    1
    29    16    17    1
    30    16    37    1
    31    16    38    1
    32    17    18    1
    33    17    39    1
    34    17    40    1
    35    18    19    1
    36    18    20    1
    37    18    25    1
    38    20    24    1
    39    20    21    2
    40    21    22    1
    41    22    23    2
    42    22    41    1
    43    23    24    1
    44    23    42    1
    45    25    43    1
    46    25    44    1
@<TRIPOS>SUBSTRUCTURE
     1 ZINC000179743483        1 TEMP              0 ****  ****    0 ROOT


##########                                Name:    ZINC000252489163
##########                DOCK_Rotatable_Bonds:                   6
##########                         Heavy_Atoms:                  25
##########                    Molecular_Weight:             379.403
##########                DOCK_Rotatable_Bonds:                   6
##########                       Formal_Charge:          0.00999963
##########                     HBond_Acceptors:                  10
##########                        HBond_Donors:                   2
##########                         Heavy_Atoms:                  25
##########                          Grid_Score:          -25.540970
##########                     Grid_vdw_energy:          -22.141121
##########                      Grid_es_energy:           -3.399850
##########           Internal_energy_repulsive:            8.905262

@<TRIPOS>MOLECULE
ZINC000252489163
 45 46 1 0 0
SMALL
USER_CHARGES


@<TRIPOS>ATOM
      1 C1         -0.6354    0.2856   47.1496 C.3     1  ZINC000252489163   -0.1100
      2 C2         -0.7441    1.6395   47.8025 C.ar    1  ZINC000252489163   -0.0600
      3 C3         -1.5242    1.8006   48.9305 C.ar    1  ZINC000252489163   -0.1300
      4 C4         -1.6235    3.0485   49.5320 C.ar    1  ZINC000252489163    0.1700
      5 N5         -2.4129    3.2150   50.6756 N.am    1  ZINC000252489163   -0.6800
      6 C6         -1.8562    3.1155   51.8990 C.2     1  ZINC000252489163    0.7100
      7 O7         -0.6682    2.8811   52.0091 O.2     1  ZINC000252489163   -0.5500
      8 N8         -2.6164    3.2758   53.0003 N.am    1  ZINC000252489163   -0.6200
      9 C9         -4.0532    3.5594   52.8834 C.3     1  ZINC000252489163    0.1000
     10 C10        -4.3744    4.8201   53.6921 C.3     1  ZINC000252489163   -0.1400
     11 C11        -3.8850    4.6369   55.1306 C.3     1  ZINC000252489163   -0.1300
     12 C12        -2.3680    4.4347   55.1332 C.3     1  ZINC000252489163    0.1400
     13 H13        -1.8854    5.2960   54.6712 H       1  ZINC000252489163    0.0900
     14 N14        -1.8961    4.2915   56.5128 N.am    1  ZINC000252489163   -1.1100
     15 S15        -0.4454    4.9504   56.9643 S.o2    1  ZINC000252489163    2.6100
     16 C16        -0.2839    4.5288   58.7212 C.3     1  ZINC000252489163   -0.6700
     17 O17         0.5157    4.2444   56.1916 O.2     1  ZINC000252489163   -0.9500
     18 O18        -0.6307    6.3500   56.8024 O.2     1  ZINC000252489163   -0.9500
     19 C19        -2.0252    3.1641   54.3407 C.3     1  ZINC000252489163    0.1100
     20 C20        -0.9378    4.1305   48.9965 C.ar    1  ZINC000252489163   -0.1000
     21 C21        -0.1591    3.9629   47.8679 C.ar    1  ZINC000252489163   -0.1600
     22 C22         0.5856    5.1368   47.2860 C.3     1  ZINC000252489163    0.5100
     23 F23        -0.1040    6.3181   47.5791 F       1  ZINC000252489163   -0.1700
     24 F24         1.8688    5.1961   47.8402 F       1  ZINC000252489163   -0.1800
     25 F25         0.6834    4.9857   45.8986 F       1  ZINC000252489163   -0.1800
     26 C26        -0.0580    2.7181   47.2746 C.ar    1  ZINC000252489163   -0.0900
     27 H27         0.1984   -0.2630   47.5876 H       1  ZINC000252489163    0.0800
     28 H28        -1.5596   -0.2698   47.3089 H       1  ZINC000252489163    0.0700
     29 H29        -0.4663    0.4106   46.0800 H       1  ZINC000252489163    0.0700
     30 H30        -2.0567    0.9571   49.3445 H       1  ZINC000252489163    0.1300
     31 H31        -3.3606    3.4019   50.5878 H       1  ZINC000252489163    0.4100
     32 H32        -4.3096    3.7218   51.8364 H       1  ZINC000252489163    0.0800
     33 H33        -4.6248    2.7181   53.2754 H       1  ZINC000252489163    0.0800
     34 H34        -3.8730    5.6776   53.2437 H       1  ZINC000252489163    0.0700
     35 H35        -5.4515    4.9873   53.6930 H       1  ZINC000252489163    0.0900
     36 H36        -4.1343    5.5228   55.7146 H       1  ZINC000252489163    0.0800
     37 H37        -4.3683    3.7644   55.5703 H       1  ZINC000252489163    0.0800
     38 H38        -2.4335    3.8109   57.1617 H       1  ZINC000252489163    0.4200
     39 H39        -0.2923    3.4450   58.8369 H       1  ZINC000252489163    0.1300
     40 H40         0.6544    4.9281   59.1059 H       1  ZINC000252489163    0.1300
     41 H41        -1.1170    4.9598   59.2764 H       1  ZINC000252489163    0.1300
     42 H42        -2.4317    2.2926   54.8538 H       1  ZINC000252489163    0.0800
     43 H43        -0.9429    3.0681   54.2545 H       1  ZINC000252489163    0.1100
     44 H44        -1.0133    5.1023   49.4616 H       1  ZINC000252489163    0.1800
     45 H45         0.5517    2.5895   46.3925 H       1  ZINC000252489163    0.1300
@<TRIPOS>BOND
     1     1     2    1
     2     1    27    1
     3     1    28    1
     4     1    29    1
     5     2    26   ar
     6     2     3   ar
     7     3     4   ar
     8     3    30    1
     9     4     5    1
    10     4    20   ar
    11     5     6   am
    12     5    31    1
    13     6     7    2
    14     6     8   am
    15     8    19    1
    16     8     9    1
    17     9    10    1
    18     9    32    1
    19     9    33    1
    20    10    11    1
    21    10    34    1
    22    10    35    1
    23    11    12    1
    24    11    36    1
    25    11    37    1
    26    12    13    1
    27    12    14    1
    28    12    19    1
    29    14    15   am
    30    14    38    1
    31    15    16    1
    32    15    17    2
    33    15    18    2
    34    16    39    1
    35    16    40    1
    36    16    41    1
    37    19    42    1
    38    19    43    1
    39    20    21   ar
    40    20    44    1
    41    21    22    1
    42    21    26   ar
    43    22    23    1
    44    22    24    1
    45    22    25    1
    46    26    45    1
@<TRIPOS>SUBSTRUCTURE
     1 ZINC000252489163        1 TEMP              0 ****  ****    0 ROOT


##########                                Name:    ZINC000341804698
##########                DOCK_Rotatable_Bonds:                   7
##########                         Heavy_Atoms:                  24
##########                    Molecular_Weight:             342.318
##########                DOCK_Rotatable_Bonds:                   7
##########                       Formal_Charge:                0.02
##########                     HBond_Acceptors:                   8
##########                        HBond_Donors:                   0
##########                         Heavy_Atoms:                  24
##########                          Grid_Score:          -25.494442
##########                     Grid_vdw_energy:          -25.265015
##########                      Grid_es_energy:           -0.229428
##########           Internal_energy_repulsive:           26.293652

@<TRIPOS>MOLECULE
ZINC000341804698
 41 42 1 0 0
SMALL
USER_CHARGES


@<TRIPOS>ATOM
      1 C1         -8.1283    0.7861   52.4027 C.3     1  ZINC000341804698    0.0300
      2 O2         -9.3779    0.1982   52.0352 O.3     1  ZINC000341804698   -0.3900
      3 C3         -9.4115   -1.2244   52.1652 C.3     1  ZINC000341804698    0.0700
      4 C4        -10.7970   -1.6598   52.6468 C.3     1  ZINC000341804698    0.0400
      5 C5        -11.8287   -1.0281   51.8081 C.1     1  ZINC000341804698    0.2200
      6 N6        -12.6248   -0.5407   51.1609 N.1     1  ZINC000341804698   -0.4200
      7 C7        -10.9176   -3.1819   52.5433 C.3     1  ZINC000341804698   -0.1200
      8 C8        -12.3177   -3.6109   52.9936 C.3     1  ZINC000341804698    0.1100
      9 N9        -12.5663   -3.0760   54.3392 N.am    1  ZINC000341804698   -0.6000
     10 C10       -12.9482   -3.8910   55.3424 C.2     1  ZINC000341804698    0.5700
     11 O11       -13.0901   -5.0809   55.1382 O.2     1  ZINC000341804698   -0.5200
     12 C12       -13.1946   -3.3379   56.6912 C.ar    1  ZINC000341804698   -0.0900
     13 C13       -14.4933   -3.0200   57.0912 C.ar    1  ZINC000341804698   -0.1100
     14 C14       -14.7198   -2.5038   58.3509 C.ar    1  ZINC000341804698   -0.0800
     15 C15       -13.6637   -2.3000   59.2193 C.ar    1  ZINC000341804698   -0.1700
     16 C16       -12.3680   -2.6128   58.8301 C.ar    1  ZINC000341804698    0.1100
     17 O17       -11.3334   -2.4101   59.6877 O.3     1  ZINC000341804698   -0.3100
     18 C18       -11.6187   -1.6930   60.8905 C.3     1  ZINC000341804698    0.6000
     19 F19       -12.2230   -0.4718   60.5731 F       1  ZINC000341804698   -0.1600
     20 F20       -12.4841   -2.4479   61.6893 F       1  ZINC000341804698   -0.1300
     21 F21       -10.4282   -1.4572   61.5863 F       1  ZINC000341804698   -0.1600
     22 C22       -12.1303   -3.1371   57.5709 C.ar    1  ZINC000341804698   -0.0700
     23 C23       -12.3901   -1.6359   54.5706 C.3     1  ZINC000341804698    0.0900
     24 C24       -10.9893   -1.2290   54.1027 C.3     1  ZINC000341804698   -0.1200
     25 H25        -7.9096    0.5531   53.4447 H       1  ZINC000341804698    0.0400
     26 H26        -7.3379    0.3863   51.7674 H       1  ZINC000341804698    0.0500
     27 H27        -8.1841    1.8673   52.2761 H       1  ZINC000341804698    0.0900
     28 H28        -9.2022   -1.6826   51.1986 H       1  ZINC000341804698    0.0700
     29 H29        -8.6595   -1.5411   52.8879 H       1  ZINC000341804698    0.0600
     30 H30       -10.7575   -3.4901   51.5101 H       1  ZINC000341804698    0.1000
     31 H31       -10.1701   -3.6505   53.1833 H       1  ZINC000341804698    0.0900
     32 H32       -13.0612   -3.2169   52.3006 H       1  ZINC000341804698    0.0700
     33 H33       -12.3768   -4.6990   53.0162 H       1  ZINC000341804698    0.1100
     34 H34       -15.3207   -3.1776   56.4152 H       1  ZINC000341804698    0.1400
     35 H35       -15.7253   -2.2579   58.6591 H       1  ZINC000341804698    0.1400
     36 H36       -13.8468   -1.8958   60.2039 H       1  ZINC000341804698    0.1400
     37 H37       -11.1231   -3.3812   57.2670 H       1  ZINC000341804698    0.1500
     38 H38       -13.1395   -1.0808   54.0063 H       1  ZINC000341804698    0.0800
     39 H39       -12.4969   -1.4208   55.6338 H       1  ZINC000341804698    0.1100
     40 H40       -10.2410   -1.7160   54.7280 H       1  ZINC000341804698    0.1000
     41 H41       -10.8800   -0.1471   54.1794 H       1  ZINC000341804698    0.0900
@<TRIPOS>BOND
     1     1     2    1
     2     1    25    1
     3     1    26    1
     4     1    27    1
     5     2     3    1
     6     3     4    1
     7     3    28    1
     8     3    29    1
     9     4    24    1
    10     4     5    1
    11     4     7    1
    12     5     6    3
    13     7     8    1
    14     7    30    1
    15     7    31    1
    16     8     9    1
    17     8    32    1
    18     8    33    1
    19     9    10   am
    20     9    23    1
    21    10    11    2
    22    10    12    1
    23    12    22   ar
    24    12    13   ar
    25    13    14   ar
    26    13    34    1
    27    14    15   ar
    28    14    35    1
    29    15    16   ar
    30    15    36    1
    31    16    17    1
    32    16    22   ar
    33    17    18    1
    34    18    19    1
    35    18    20    1
    36    18    21    1
    37    22    37    1
    38    23    24    1
    39    23    38    1
    40    23    39    1
    41    24    40    1
    42    24    41    1
@<TRIPOS>SUBSTRUCTURE
     1 ZINC000341804698        1 TEMP              0 ****  ****    0 ROOT


##########                                Name:    ZINC000430767928
##########                DOCK_Rotatable_Bonds:                   4
##########                         Heavy_Atoms:                  25
##########                    Molecular_Weight:             358.505
##########                DOCK_Rotatable_Bonds:                   4
##########                       Formal_Charge:          -0.0100002
##########                     HBond_Acceptors:                   5
##########                        HBond_Donors:                   0
##########                         Heavy_Atoms:                  25
##########                          Grid_Score:          -25.455294
##########                     Grid_vdw_energy:          -25.281178
##########                      Grid_es_energy:           -0.174116
##########           Internal_energy_repulsive:           14.701900

@<TRIPOS>MOLECULE
ZINC000430767928
 51 55 1 0 0
SMALL
USER_CHARGES


@<TRIPOS>ATOM
      1 O1          2.5441    2.5259   45.1981 O.2     1  ZINC000430767928   -0.4600
      2 C2          1.9304    1.6743   45.8047 C.2     1  ZINC000430767928    0.5300
      3 C3          0.4855    1.7211   46.2397 C.3     1  ZINC000430767928    0.0400
      4 H4         -0.2103    1.6239   45.4062 H       1  ZINC000430767928    0.1400
      5 C5          0.1979    2.9560   47.1183 C.3     1  ZINC000430767928   -0.1100
      6 C6         -0.9123    2.4367   48.0674 C.3     1  ZINC000430767928   -0.1000
      7 H7         -1.8953    2.7219   47.6928 H       1  ZINC000430767928    0.1000
      8 C8         -0.7031    2.9843   49.4807 C.3     1  ZINC000430767928   -0.0800
      9 C9         -0.6883    4.5137   49.4382 C.3     1  ZINC000430767928   -0.1100
     10 C10        -0.4791    5.0611   50.8516 C.3     1  ZINC000430767928   -0.1200
     11 C11        -1.6186    4.5871   51.7559 C.3     1  ZINC000430767928   -0.1200
     12 C12        -1.6334    3.0578   51.7984 C.3     1  ZINC000430767928   -0.1200
     13 C13        -1.8426    2.5103   50.3850 C.3     1  ZINC000430767928   -0.1200
     14 C14        -0.7577    0.9005   48.0556 C.3     1  ZINC000430767928    0.1600
     15 N15         0.4046    0.5903   47.2064 N.am    1  ZINC000430767928   -0.6400
     16 C16         1.4498   -0.1950   46.9273 C.2     1  ZINC000430767928    0.7400
     17 O17         1.5438   -1.3565   47.2729 O.2     1  ZINC000430767928   -0.5100
     18 N18         2.3921    0.4778   46.2310 N.am    1  ZINC000430767928   -0.5800
     19 C19         3.7455   -0.0217   45.9764 C.3     1  ZINC000430767928    0.2600
     20 H20         3.7918   -1.0841   46.2159 H       1  ZINC000430767928    0.1200
     21 C21         4.0909    0.1812   44.5237 C.2     1  ZINC000430767928   -0.2100
     22 C22         4.8158    1.1908   44.0395 C.2     1  ZINC000430767928   -0.1200
     23 C23         5.0041    1.1686   42.6682 C.2     1  ZINC000430767928   -0.1400
     24 C24         4.4319    0.1409   42.0390 C.2     1  ZINC000430767928   -0.2300
     25 S25         3.6061   -0.8810   43.2083 S.3     1  ZINC000430767928    0.1700
     26 C26         4.7435    0.7418   46.8494 C.3     1  ZINC000430767928   -0.1700
     27 C27         5.2949    0.0253   48.0839 C.3     1  ZINC000430767928   -0.1700
     28 C28         6.1915    0.2479   46.8642 C.3     1  ZINC000430767928   -0.1600
     29 H29         1.0849    3.2460   47.6814 H       1  ZINC000430767928    0.0800
     30 H30        -0.1667    3.7860   46.5129 H       1  ZINC000430767928    0.1000
     31 H31         0.2470    2.6224   49.8737 H       1  ZINC000430767928    0.0700
     32 H32         0.1236    4.8513   48.7939 H       1  ZINC000430767928    0.0600
     33 H33        -1.6384    4.8754   49.0453 H       1  ZINC000430767928    0.0700
     34 H34         0.4711    4.6993   51.2444 H       1  ZINC000430767928    0.0600
     35 H35        -0.4685    6.1506   50.8212 H       1  ZINC000430767928    0.0600
     36 H36        -1.4696    4.9771   52.7627 H       1  ZINC000430767928    0.0600
     37 H37        -2.5687    4.9489   51.3630 H       1  ZINC000430767928    0.0600
     38 H38        -0.6833    2.6959   52.1912 H       1  ZINC000430767928    0.0600
     39 H39        -2.4452    2.7200   52.4426 H       1  ZINC000430767928    0.0600
     40 H40        -2.7928    2.8721   49.9921 H       1  ZINC000430767928    0.0700
     41 H41        -1.8532    1.4208   50.4154 H       1  ZINC000430767928    0.0600
     42 H42        -0.5947    0.5340   49.0692 H       1  ZINC000430767928    0.0900
     43 H43        -1.6487    0.4390   47.6302 H       1  ZINC000430767928    0.0800
     44 H44         5.2248    1.9669   44.6694 H       1  ZINC000430767928    0.1400
     45 H45         5.5708    1.9260   42.1474 H       1  ZINC000430767928    0.1400
     46 H46         4.4725   -0.0381   40.9747 H       1  ZINC000430767928    0.1600
     47 H47         4.5775    1.8165   46.9232 H       1  ZINC000430767928    0.1200
     48 H48         5.4917    0.6287   48.9700 H       1  ZINC000430767928    0.1000
     49 H49         4.9467   -0.9899   48.2739 H       1  ZINC000430767928    0.1000
     50 H50         6.4332   -0.6209   46.2519 H       1  ZINC000430767928    0.1000
     51 H51         6.9782    0.9977   46.9480 H       1  ZINC000430767928    0.1000
@<TRIPOS>BOND
     1     1     2    2
     2     2    18   am
     3     2     3    1
     4     3     4    1
     5     3    15    1
     6     3     5    1
     7     5     6    1
     8     5    29    1
     9     5    30    1
    10     6     7    1
    11     6     8    1
    12     6    14    1
    13     8    13    1
    14     8     9    1
    15     8    31    1
    16     9    10    1
    17     9    32    1
    18     9    33    1
    19    10    11    1
    20    10    34    1
    21    10    35    1
    22    11    12    1
    23    11    36    1
    24    11    37    1
    25    12    13    1
    26    12    38    1
    27    12    39    1
    28    13    40    1
    29    13    41    1
    30    14    15    1
    31    14    42    1
    32    14    43    1
    33    15    16   am
    34    16    17    2
    35    16    18   am
    36    18    19    1
    37    19    20    1
    38    19    21    1
    39    19    26    1
    40    21    25    1
    41    21    22    2
    42    22    23    1
    43    22    44    1
    44    23    24    2
    45    23    45    1
    46    24    25    1
    47    24    46    1
    48    26    28    1
    49    26    27    1
    50    26    47    1
    51    27    28    1
    52    27    48    1
    53    27    49    1
    54    28    50    1
    55    28    51    1
@<TRIPOS>SUBSTRUCTURE
     1 ZINC000430767928        1 TEMP              0 ****  ****    0 ROOT


##########                                Name:    ZINC000098105561
##########                DOCK_Rotatable_Bonds:                   5
##########                         Heavy_Atoms:                  25
##########                    Molecular_Weight:             368.336
##########                DOCK_Rotatable_Bonds:                   5
##########                       Formal_Charge:         2.98023e-08
##########                     HBond_Acceptors:                   9
##########                        HBond_Donors:                   0
##########                         Heavy_Atoms:                  25
##########                          Grid_Score:          -25.350279
##########                     Grid_vdw_energy:          -24.284689
##########                      Grid_es_energy:           -1.065590
##########           Internal_energy_repulsive:           11.505713

@<TRIPOS>MOLECULE
ZINC000098105561
 36 38 1 0 0
SMALL
USER_CHARGES


@<TRIPOS>ATOM
      1 C1          0.3165    4.3347   45.8072 C.3     1  ZINC000098105561   -0.0800
      2 C2          0.1881    2.9566   46.4032 C.2     1  ZINC000098105561    0.0900
      3 C3         -0.8048    2.1227   46.0853 C.2     1  ZINC000098105561   -0.2700
      4 S4         -0.5801    0.6329   46.9984 S.3     1  ZINC000098105561    0.1600
      5 C5          0.8296    1.2762   47.7208 C.2     1  ZINC000098105561    0.2500
      6 N6          1.6249    0.6104   48.6431 N.am    1  ZINC000098105561   -0.5200
      7 C7          2.6424   -0.3380   48.1835 C.3     1  ZINC000098105561    0.0500
      8 C8          3.3945    0.2586   46.9921 C.3     1  ZINC000098105561    0.4400
      9 F9          2.5604    0.2631   45.8689 F       1  ZINC000098105561   -0.1700
     10 F10         3.7791    1.5698   47.2925 F       1  ZINC000098105561   -0.1700
     11 F11         4.5316   -0.5114   46.7254 F       1  ZINC000098105561   -0.1700
     12 C12         1.4609    0.8364   49.9617 C.2     1  ZINC000098105561    0.5800
     13 O13         2.1572    0.2535   50.7692 O.2     1  ZINC000098105561   -0.4100
     14 C14         0.4322    1.7951   50.4265 C.2     1  ZINC000098105561    0.0800
     15 C15         0.8272    3.0308   50.8210 C.2     1  ZINC000098105561   -0.2000
     16 C16        -0.2009    3.9717   51.2973 C.2     1  ZINC000098105561    0.4200
     17 O17         0.0321    5.1572   51.4545 O.2     1  ZINC000098105561   -0.4300
     18 C18        -1.5312    3.3924   51.5726 C.ar    1  ZINC000098105561   -0.2200
     19 C19        -2.5084    4.1076   52.2616 C.ar    1  ZINC000098105561   -0.0300
     20 C20        -3.7337    3.5244   52.5011 C.ar    1  ZINC000098105561   -0.1400
     21 C21        -3.9914    2.2343   52.0599 C.ar    1  ZINC000098105561   -0.0500
     22 C22        -3.0336    1.5178   51.3754 C.ar    1  ZINC000098105561   -0.1400
     23 C23        -1.7907    2.0872   51.1187 C.ar    1  ZINC000098105561    0.1400
     24 O24        -0.8502    1.4066   50.4340 O.3     1  ZINC000098105561   -0.2300
     25 N25         1.0509    2.4744   47.2772 N.2     1  ZINC000098105561   -0.4600
     26 H26         0.9113    4.2822   44.8952 H       1  ZINC000098105561    0.0800
     27 H27        -0.6746    4.7230   45.5726 H       1  ZINC000098105561    0.0800
     28 H28         0.8059    4.9958   46.5224 H       1  ZINC000098105561    0.0800
     29 H29        -1.6060    2.3261   45.3903 H       1  ZINC000098105561    0.1900
     30 H30         3.3445   -0.5383   48.9929 H       1  ZINC000098105561    0.1700
     31 H31         2.1618   -1.2683   47.8808 H       1  ZINC000098105561    0.1400
     32 H32         1.8679    3.3173   50.7873 H       1  ZINC000098105561    0.1800
     33 H33        -2.3070    5.1112   52.6058 H       1  ZINC000098105561    0.1400
     34 H34        -4.4959    4.0732   53.0343 H       1  ZINC000098105561    0.1400
     35 H35        -4.9542    1.7859   52.2557 H       1  ZINC000098105561    0.1400
     36 H36        -3.2480    0.5145   51.0380 H       1  ZINC000098105561    0.1400
@<TRIPOS>BOND
     1     1     2    1
     2     1    26    1
     3     1    27    1
     4     1    28    1
     5     2    25    1
     6     2     3    2
     7     3     4    1
     8     3    29    1
     9     4     5    1
    10     5     6    1
    11     5    25    2
    12     6     7    1
    13     6    12   am
    14     7     8    1
    15     7    30    1
    16     7    31    1
    17     8     9    1
    18     8    10    1
    19     8    11    1
    20    12    13    2
    21    12    14    1
    22    14    24    1
    23    14    15    2
    24    15    16    1
    25    15    32    1
    26    16    17    2
    27    16    18    1
    28    18    23   ar
    29    18    19   ar
    30    19    20   ar
    31    19    33    1
    32    20    21   ar
    33    20    34    1
    34    21    22   ar
    35    21    35    1
    36    22    23   ar
    37    22    36    1
    38    23    24    1
@<TRIPOS>SUBSTRUCTURE
     1 ZINC000098105561        1 TEMP              0 ****  ****    0 ROOT


##########                                Name:    ZINC000793092912
##########                DOCK_Rotatable_Bonds:                   4
##########                         Heavy_Atoms:                  26
##########                    Molecular_Weight:               407.2
##########                DOCK_Rotatable_Bonds:                   4
##########                       Formal_Charge:         2.90573e-07
##########                     HBond_Acceptors:                  10
##########                        HBond_Donors:                   1
##########                         Heavy_Atoms:                  26
##########                          Grid_Score:          -25.180151
##########                     Grid_vdw_energy:          -23.947283
##########                      Grid_es_energy:           -1.232867
##########           Internal_energy_repulsive:           10.800528

@<TRIPOS>MOLECULE
ZINC000793092912
 40 43 1 0 0
SMALL
USER_CHARGES


@<TRIPOS>ATOM
      1 C1         -0.6104    6.1473   55.5704 C.3     1  ZINC000793092912   -0.1300
      2 C2         -1.3378    5.3672   54.4734 C.3     1  ZINC000793092912   -0.0800
      3 C3         -0.4922    5.0162   53.2590 C.3     1  ZINC000793092912   -0.1100
      4 C4         -0.5753    3.5443   52.9005 C.3     1  ZINC000793092912    0.1100
      5 N5         -1.9303    3.0320   53.0154 N.am    1  ZINC000793092912   -0.5700
      6 C6         -2.4947    2.4418   51.9433 C.2     1  ZINC000793092912    0.5100
      7 O7         -3.6252    2.0063   52.0154 O.2     1  ZINC000793092912   -0.5100
      8 C8         -1.7291    2.3238   50.6666 C.2     1  ZINC000793092912    0.5100
      9 O9         -0.8717    1.4725   50.5496 O.2     1  ZINC000793092912   -0.4900
     10 N10        -1.9901    3.1623   49.6443 N.am    1  ZINC000793092912   -0.6400
     11 C11        -1.2731    3.0518   48.4486 C.ar    1  ZINC000793092912    0.1600
     12 C12        -1.4932    1.9715   47.6041 C.ar    1  ZINC000793092912   -0.1200
     13 C13        -0.7854    1.8609   46.4225 C.ar    1  ZINC000793092912   -0.0600
     14 C14         0.1460    2.8267   46.0770 C.ar    1  ZINC000793092912    0.0200
     15 O15         0.9613    2.9477   44.9880 O.3     1  ZINC000793092912   -0.2800
     16 C16         1.3872    4.3230   44.9777 C.3     1  ZINC000793092912    0.5700
     17 F17         2.6969    4.4285   44.4972 F       1  ZINC000793092912   -0.1100
     18 F18         0.5178    5.1010   44.2056 F       1  ZINC000793092912   -0.1500
     19 O19         1.3236    4.7115   46.3626 O.3     1  ZINC000793092912   -0.2800
     20 C20         0.3692    3.9119   46.9223 C.ar    1  ZINC000793092912    0.0500
     21 C21        -0.3445    4.0254   48.1028 C.ar    1  ZINC000793092912   -0.0900
     22 C22        -2.6992    3.1326   54.2467 C.3     1  ZINC000793092912    0.1100
     23 C23        -2.4994    4.4886   54.9073 C.3     1  ZINC000793092912   -0.1200
     24 H24        -2.7140    4.5084   55.9758 H       1  ZINC000793092912    0.1400
     25 C25        -2.7857    5.7870   54.1681 C.3     1  ZINC000793092912    0.0000
     26 Cl26       -3.4943    7.1472   55.1159 Cl      1  ZINC000793092912   -0.0800
     27 Cl27       -3.3266    5.6677   52.4522 Cl      1  ZINC000793092912   -0.0900
     28 H28        -0.1947    5.4497   56.2976 H       1  ZINC000793092912    0.0800
     29 H29         0.1952    6.7325   55.1268 H       1  ZINC000793092912    0.0700
     30 H30        -1.3132    6.8152   56.0682 H       1  ZINC000793092912    0.0700
     31 H31        -0.8339    5.6063   52.4087 H       1  ZINC000793092912    0.0900
     32 H32         0.5472    5.2703   53.4674 H       1  ZINC000793092912    0.1000
     33 H33        -0.2311    3.4093   51.8752 H       1  ZINC000793092912    0.1100
     34 H34         0.0751    2.9796   53.5684 H       1  ZINC000793092912    0.0800
     35 H35        -2.6752    3.8427   49.7378 H       1  ZINC000793092912    0.4300
     36 H36        -2.2181    1.2168   47.8714 H       1  ZINC000793092912    0.1500
     37 H37        -0.9583    1.0200   45.7672 H       1  ZINC000793092912    0.1500
     38 H38        -0.1769    4.8686   48.7564 H       1  ZINC000793092912    0.1600
     39 H39        -3.7582    3.0155   54.0168 H       1  ZINC000793092912    0.1400
     40 H40        -2.3922    2.3370   54.9255 H       1  ZINC000793092912    0.1000
@<TRIPOS>BOND
     1     1     2    1
     2     1    28    1
     3     1    29    1
     4     1    30    1
     5     2    23    1
     6     2    25    1
     7     2     3    1
     8     3     4    1
     9     3    31    1
    10     3    32    1
    11     4     5    1
    12     4    33    1
    13     4    34    1
    14     5     6   am
    15     5    22    1
    16     6     7    2
    17     6     8    1
    18     8     9    2
    19     8    10   am
    20    10    11    1
    21    10    35    1
    22    11    21   ar
    23    11    12   ar
    24    12    13   ar
    25    12    36    1
    26    13    14   ar
    27    13    37    1
    28    14    20   ar
    29    14    15    1
    30    15    16    1
    31    16    17    1
    32    16    18    1
    33    16    19    1
    34    19    20    1
    35    20    21   ar
    36    21    38    1
    37    22    23    1
    38    22    39    1
    39    22    40    1
    40    23    24    1
    41    23    25    1
    42    25    26    1
    43    25    27    1
@<TRIPOS>SUBSTRUCTURE
     1 ZINC000793092912        1 TEMP              0 ****  ****    0 ROOT


##########                                Name:    ZINC001060620810
##########                DOCK_Rotatable_Bonds:                   5
##########                         Heavy_Atoms:                  24
##########                    Molecular_Weight:             332.421
##########                DOCK_Rotatable_Bonds:                   5
##########                       Formal_Charge:           0.0299998
##########                     HBond_Acceptors:                   6
##########                        HBond_Donors:                   2
##########                         Heavy_Atoms:                  24
##########                          Grid_Score:          -25.168680
##########                     Grid_vdw_energy:          -23.197104
##########                      Grid_es_energy:           -1.971576
##########           Internal_energy_repulsive:           10.156608

@<TRIPOS>MOLECULE
ZINC001060620810
 49 52 1 0 0
SMALL
USER_CHARGES


@<TRIPOS>ATOM
      1 O1         -2.4226    1.5146   49.3001 O.2     1  ZINC001060620810   -0.5400
      2 C2         -1.4259    2.1432   49.0130 C.2     1  ZINC001060620810    0.5500
      3 N3         -1.0930    3.2397   49.7225 N.am    1  ZINC001060620810   -0.7200
      4 C4         -1.9341    3.6712   50.8416 C.3     1  ZINC001060620810    0.1400
      5 C5         -1.6504    2.7922   52.0613 C.3     1  ZINC001060620810   -0.1300
      6 C6         -2.5287    3.2429   53.2302 C.3     1  ZINC001060620810   -0.1300
      7 C7         -2.2172    4.7020   53.5694 C.3     1  ZINC001060620810    0.1600
      8 N8         -0.8061    4.8258   53.9430 N.pl3   1  ZINC001060620810   -0.6900
      9 C9         -0.4230    4.6679   55.2649 C.ar    1  ZINC001060620810    0.5600
     10 N10         0.8578    4.7790   55.5839 N.ar    1  ZINC001060620810   -0.5400
     11 C11         1.2577    4.6388   56.8372 C.ar    1  ZINC001060620810    0.1700
     12 C12         0.3178    4.3618   57.8201 C.ar    1  ZINC001060620810   -0.0700
     13 F13         0.6915    4.2078   59.1093 F       1  ZINC001060620810   -0.1300
     14 C14        -1.0145    4.2471   57.4491 C.ar    1  ZINC001060620810    0.1800
     15 N15        -1.3457    4.4042   56.1778 N.ar    1  ZINC001060620810   -0.5500
     16 C16        -2.5009    5.5810   52.3497 C.3     1  ZINC001060620810   -0.1200
     17 C17        -1.6225    5.1303   51.1809 C.3     1  ZINC001060620810   -0.1300
     18 C18        -0.5597    1.6983   47.8629 C.3     1  ZINC001060620810   -0.1500
     19 C19        -1.2656    1.5315   46.5236 C.3     1  ZINC001060620810   -0.1500
     20 C20        -0.8464    0.3099   47.3129 C.3     1  ZINC001060620810   -0.1100
     21 H21        -1.6537   -0.2549   47.7790 H       1  ZINC001060620810    0.1100
     22 C22         0.2785   -0.5472   46.7409 C.3     1  ZINC001060620810   -0.0900
     23 C23         1.6360   -0.0482   47.2363 C.3     1  ZINC001060620810   -0.1200
     24 C24         1.7500    1.4483   46.9240 C.3     1  ZINC001060620810   -0.1200
     25 C25         0.8681    2.2197   47.9058 C.3     1  ZINC001060620810   -0.0800
     26 H26        -0.2966    3.7431   49.4920 H       1  ZINC001060620810    0.4000
     27 H27        -2.9841    3.5791   50.5637 H       1  ZINC001060620810    0.0900
     28 H28        -1.8723    1.7528   51.8198 H       1  ZINC001060620810    0.0700
     29 H29        -0.6005    2.8844   52.3393 H       1  ZINC001060620810    0.0600
     30 H30        -2.3266    2.6167   54.0992 H       1  ZINC001060620810    0.0700
     31 H31        -3.5787    3.1507   52.9523 H       1  ZINC001060620810    0.0800
     32 H32        -2.8430    5.0230   54.4021 H       1  ZINC001060620810    0.1000
     33 H33        -0.1399    5.0184   53.2647 H       1  ZINC001060620810    0.4100
     34 H34         2.3029    4.7342   57.0916 H       1  ZINC001060620810    0.1800
     35 H35        -1.7715    4.0318   58.1886 H       1  ZINC001060620810    0.1800
     36 H36        -2.2790    6.6204   52.5914 H       1  ZINC001060620810    0.0800
     37 H37        -3.5509    5.4887   52.0718 H       1  ZINC001060620810    0.0900
     38 H38        -0.5726    5.2224   51.4588 H       1  ZINC001060620810    0.0700
     39 H39        -1.8247    5.7565   50.3119 H       1  ZINC001060620810    0.0800
     40 H40        -2.3315    1.7558   46.4844 H       1  ZINC001060620810    0.1000
     41 H41        -0.7003    1.7705   45.6228 H       1  ZINC001060620810    0.1100
     42 H42         0.2431   -0.4783   45.6537 H       1  ZINC001060620810    0.0700
     43 H43         0.1438   -1.5862   47.0417 H       1  ZINC001060620810    0.0700
     44 H44         2.4331   -0.5901   46.7274 H       1  ZINC001060620810    0.0700
     45 H45         1.7129   -0.2043   48.3124 H       1  ZINC001060620810    0.0700
     46 H46         1.4133    1.6360   45.9043 H       1  ZINC001060620810    0.0700
     47 H47         2.7865    1.7673   47.0344 H       1  ZINC001060620810    0.0700
     48 H48         0.8732    3.2768   47.6398 H       1  ZINC001060620810    0.0700
     49 H49         1.2644    2.1008   48.9143 H       1  ZINC001060620810    0.0700
@<TRIPOS>BOND
     1     1     2    2
     2     2     3   am
     3     2    18    1
     4     3     4    1
     5     3    26    1
     6     4    17    1
     7     4     5    1
     8     4    27    1
     9     5     6    1
    10     5    28    1
    11     5    29    1
    12     6     7    1
    13     6    30    1
    14     6    31    1
    15     7     8    1
    16     7    16    1
    17     7    32    1
    18     8     9    1
    19     8    33    1
    20     9    15   ar
    21     9    10   ar
    22    10    11   ar
    23    11    12   ar
    24    11    34    1
    25    12    13    1
    26    12    14   ar
    27    14    15   ar
    28    14    35    1
    29    16    17    1
    30    16    36    1
    31    16    37    1
    32    17    38    1
    33    17    39    1
    34    18    20    1
    35    18    25    1
    36    18    19    1
    37    19    20    1
    38    19    40    1
    39    19    41    1
    40    20    21    1
    41    20    22    1
    42    22    23    1
    43    22    42    1
    44    22    43    1
    45    23    24    1
    46    23    44    1
    47    23    45    1
    48    24    25    1
    49    24    46    1
    50    24    47    1
    51    25    48    1
    52    25    49    1
@<TRIPOS>SUBSTRUCTURE
     1 ZINC001060620810        1 TEMP              0 ****  ****    0 ROOT


##########                                Name:    ZINC000330515179
##########                DOCK_Rotatable_Bonds:                   4
##########                         Heavy_Atoms:                  21
##########                    Molecular_Weight:             378.287
##########                DOCK_Rotatable_Bonds:                   4
##########                       Formal_Charge:           0.0200002
##########                     HBond_Acceptors:                   6
##########                        HBond_Donors:                   0
##########                         Heavy_Atoms:                  21
##########                          Grid_Score:          -25.159840
##########                     Grid_vdw_energy:          -25.197130
##########                      Grid_es_energy:            0.037290
##########           Internal_energy_repulsive:            6.387458

@<TRIPOS>MOLECULE
ZINC000330515179
 41 42 1 0 0
SMALL
USER_CHARGES


@<TRIPOS>ATOM
      1 C1        -13.8600   -5.5193   56.0657 C.3     1  ZINC000330515179    0.0300
      2 O2        -13.7058   -4.5734   57.1257 O.3     1  ZINC000330515179   -0.3800
      3 C3        -12.4048   -3.9866   57.1962 C.3     1  ZINC000330515179    0.0700
      4 C4        -12.3575   -2.7428   56.3064 C.3     1  ZINC000330515179    0.0800
      5 H5        -13.2582   -2.6987   55.6941 H       1  ZINC000330515179    0.0800
      6 C6        -11.1240   -2.8094   55.3984 C.3     1  ZINC000330515179    0.0900
      7 N7        -10.9982   -1.5250   54.6915 N.am    1  ZINC000330515179   -1.0000
      8 S8        -10.8066   -1.4720   53.0475 S.o2    1  ZINC000330515179    2.6900
      9 O9        -10.6494   -2.8175   52.6183 O.2     1  ZINC000330515179   -0.9400
     10 O10       -11.8237   -0.6121   52.5524 O.2     1  ZINC000330515179   -0.9500
     11 C11        -9.2734   -0.6651   52.7269 C.ar    1  ZINC000330515179   -0.6700
     12 C12        -8.1380   -1.4131   52.4767 C.ar    1  ZINC000330515179   -0.0100
     13 C13        -6.9351   -0.7805   52.2248 C.ar    1  ZINC000330515179   -0.1100
     14 C14        -6.8675    0.6011   52.2229 C.ar    1  ZINC000330515179   -0.0400
     15 Br15       -5.2223    1.4670   51.8776 Br      1  ZINC000330515179   -0.0300
     16 C16        -8.0038    1.3491   52.4732 C.ar    1  ZINC000330515179   -0.1100
     17 C17        -9.2074    0.7157   52.7198 C.ar    1  ZINC000330515179   -0.0100
     18 C18       -11.0472   -0.2891   55.4887 C.3     1  ZINC000330515179    0.1000
     19 C19       -12.2843   -0.3453   56.3922 C.3     1  ZINC000330515179    0.1000
     20 C20       -12.2578    0.8322   57.3688 C.3     1  ZINC000330515179   -0.1400
     21 C21       -13.5482   -0.2686   55.5334 C.3     1  ZINC000330515179   -0.1800
     22 O22       -12.2783   -1.5731   57.1244 O.3     1  ZINC000330515179   -0.3500
     23 H23       -14.8740   -5.9190   56.0800 H       1  ZINC000330515179    0.0900
     24 H24       -13.6768   -5.0275   55.1103 H       1  ZINC000330515179    0.0400
     25 H25       -13.1469   -6.3330   56.1981 H       1  ZINC000330515179    0.0400
     26 H26       -12.1887   -3.7044   58.2266 H       1  ZINC000330515179    0.0600
     27 H27       -11.6621   -4.7070   56.8534 H       1  ZINC000330515179    0.0700
     28 H28       -10.2334   -2.9854   56.0015 H       1  ZINC000330515179    0.0900
     29 H29       -11.2436   -3.6163   54.6753 H       1  ZINC000330515179    0.1000
     30 H30        -8.1908   -2.4918   52.4786 H       1  ZINC000330515179    0.1500
     31 H31        -6.0481   -1.3649   52.0297 H       1  ZINC000330515179    0.1500
     32 H32        -7.9516    2.4277   52.4718 H       1  ZINC000330515179    0.1500
     33 H33       -10.0946    1.2996   52.9153 H       1  ZINC000330515179    0.1500
     34 H34       -10.1488   -0.2113   56.1009 H       1  ZINC000330515179    0.0900
     35 H35       -11.1159    0.5731   54.8254 H       1  ZINC000330515179    0.1000
     36 H36       -12.2588    1.7679   56.8099 H       1  ZINC000330515179    0.0800
     37 H37       -13.1377    0.7916   58.0109 H       1  ZINC000330515179    0.0700
     38 H38       -11.3580    0.7759   57.9815 H       1  ZINC000330515179    0.0700
     39 H39       -13.5674   -1.1087   54.8392 H       1  ZINC000330515179    0.0600
     40 H40       -14.4274   -0.3086   56.1765 H       1  ZINC000330515179    0.0700
     41 H41       -13.5504    0.6662   54.9728 H       1  ZINC000330515179    0.0700
@<TRIPOS>BOND
     1     1     2    1
     2     1    23    1
     3     1    24    1
     4     1    25    1
     5     2     3    1
     6     3     4    1
     7     3    26    1
     8     3    27    1
     9     4     5    1
    10     4    22    1
    11     4     6    1
    12     6     7    1
    13     6    28    1
    14     6    29    1
    15     7     8   am
    16     7    18    1
    17     8     9    2
    18     8    10    2
    19     8    11    1
    20    11    17   ar
    21    11    12   ar
    22    12    13   ar
    23    12    30    1
    24    13    14   ar
    25    13    31    1
    26    14    15    1
    27    14    16   ar
    28    16    17   ar
    29    16    32    1
    30    17    33    1
    31    18    19    1
    32    18    34    1
    33    18    35    1
    34    19    20    1
    35    19    21    1
    36    19    22    1
    37    20    36    1
    38    20    37    1
    39    20    38    1
    40    21    39    1
    41    21    40    1
    42    21    41    1
@<TRIPOS>SUBSTRUCTURE
     1 ZINC000330515179        1 TEMP              0 ****  ****    0 ROOT


##########                                Name:    ZINC000828026236
##########                DOCK_Rotatable_Bonds:                   1
##########                         Heavy_Atoms:                  19
##########                    Molecular_Weight:             383.045
##########                DOCK_Rotatable_Bonds:                   1
##########                       Formal_Charge:                   0
##########                     HBond_Acceptors:                   5
##########                        HBond_Donors:                   0
##########                         Heavy_Atoms:                  19
##########                          Grid_Score:          -25.116148
##########                     Grid_vdw_energy:          -24.788595
##########                      Grid_es_energy:           -0.327552
##########           Internal_energy_repulsive:            2.608421

@<TRIPOS>MOLECULE
ZINC000828026236
 28 30 1 0 0
SMALL
USER_CHARGES


@<TRIPOS>ATOM
      1 N1        -10.6164   -3.3486   55.7488 N.1     1  ZINC000828026236   -0.3800
      2 C2        -11.3911   -2.9529   55.0182 C.1     1  ZINC000828026236    0.2600
      3 C3        -12.3676   -2.4542   54.0972 C.ar    1  ZINC000828026236   -0.0500
      4 C4        -13.7043   -2.8579   54.1882 C.ar    1  ZINC000828026236    0.0100
      5 C5        -14.6096   -2.3465   53.2734 C.ar    1  ZINC000828026236   -0.1600
      6 Br6       -16.4293   -2.8553   53.3473 Br      1  ZINC000828026236   -0.0100
      7 C7        -14.1723   -1.4600   52.3051 C.ar    1  ZINC000828026236    0.1800
      8 N8        -12.9073   -1.0919   52.2366 N.ar    1  ZINC000828026236   -0.5000
      9 C9        -12.0021   -1.5454   53.0889 C.ar    1  ZINC000828026236    0.3600
     10 N10       -10.6854   -1.1318   52.9793 N.3     1  ZINC000828026236   -0.4900
     11 C11       -10.6072    0.2558   52.5012 C.3     1  ZINC000828026236    0.0500
     12 C12        -9.1951    0.8054   52.7403 C.3     1  ZINC000828026236    0.1100
     13 N13        -8.2306   -0.1648   52.2157 N.pl3   1  ZINC000828026236   -0.4400
     14 C14        -6.9122    0.0151   51.9324 C.2     1  ZINC000828026236   -0.0300
     15 Br15       -5.9188    1.6102   52.1432 Br      1  ZINC000828026236    0.0200
     16 C16        -6.4511   -1.1674   51.4714 C.2     1  ZINC000828026236    0.0300
     17 N17        -7.4704   -2.0434   51.4768 N.2     1  ZINC000828026236   -0.4700
     18 C18        -8.5385   -1.4535   51.9216 C.2     1  ZINC000828026236    0.2300
     19 C19        -9.9178   -2.0391   52.1087 C.3     1  ZINC000828026236    0.1500
     20 H20       -14.0221   -3.5516   54.9526 H       1  ZINC000828026236    0.1600
     21 H21       -14.8795   -1.0623   51.5923 H       1  ZINC000828026236    0.1800
     22 H22       -10.8323    0.2853   51.4351 H       1  ZINC000828026236    0.0700
     23 H23       -11.3306    0.8668   53.0411 H       1  ZINC000828026236    0.1100
     24 H24        -9.0783    1.7571   52.2219 H       1  ZINC000828026236    0.1100
     25 H25        -9.0312    0.9458   53.8087 H       1  ZINC000828026236    0.1000
     26 H26        -5.4397   -1.3734   51.1535 H       1  ZINC000828026236    0.1800
     27 H27        -9.8407   -3.0205   52.5766 H       1  ZINC000828026236    0.1200
     28 H28       -10.4137   -2.1292   51.1423 H       1  ZINC000828026236    0.1000
@<TRIPOS>BOND
     1     1     2    3
     2     2     3    1
     3     3     9   ar
     4     3     4   ar
     5     4     5   ar
     6     4    20    1
     7     5     6    1
     8     5     7   ar
     9     7     8   ar
    10     7    21    1
    11     8     9   ar
    12     9    10    1
    13    10    19    1
    14    10    11    1
    15    11    12    1
    16    11    22    1
    17    11    23    1
    18    12    13    1
    19    12    24    1
    20    12    25    1
    21    13    18    1
    22    13    14    1
    23    14    15    1
    24    14    16    2
    25    16    17    1
    26    16    26    1
    27    17    18    2
    28    18    19    1
    29    19    27    1
    30    19    28    1
@<TRIPOS>SUBSTRUCTURE
     1 ZINC000828026236        1 TEMP              0 ****  ****    0 ROOT


##########                                Name:    ZINC001023407238
##########                DOCK_Rotatable_Bonds:                   7
##########                         Heavy_Atoms:                  25
##########                    Molecular_Weight:             349.387
##########                DOCK_Rotatable_Bonds:                   7
##########                       Formal_Charge:          -0.0300008
##########                     HBond_Acceptors:                   8
##########                        HBond_Donors:                   2
##########                         Heavy_Atoms:                  25
##########                          Grid_Score:          -24.839632
##########                     Grid_vdw_energy:          -23.235832
##########                      Grid_es_energy:           -1.603801
##########           Internal_energy_repulsive:            8.103561

@<TRIPOS>MOLECULE
ZINC001023407238
 48 50 1 0 0
SMALL
USER_CHARGES


@<TRIPOS>ATOM
      1 C1          1.8074    5.0870   56.1605 C.3     1  ZINC001023407238   -0.0900
      2 C2          1.3072    3.8478   56.8572 C.2     1  ZINC001023407238   -0.1100
      3 C3         -0.0038    3.5555   57.1681 C.2     1  ZINC001023407238   -0.0500
      4 C4         -1.1711    4.3959   56.8808 C.2     1  ZINC001023407238    0.6100
      5 O5         -1.5632    5.1965   57.7092 O.2     1  ZINC001023407238   -0.5100
      6 N6         -1.8095    4.2814   55.6994 N.am    1  ZINC001023407238   -0.6100
      7 C7         -2.9865    5.0576   55.2826 C.3     1  ZINC001023407238    0.0800
      8 C8         -3.3493    4.6070   53.8518 C.3     1  ZINC001023407238    0.0900
      9 H9         -4.1312    3.8480   53.8732 H       1  ZINC001023407238    0.0800
     10 O10        -3.7530    5.7239   53.0572 O.3     1  ZINC001023407238   -0.5500
     11 C11        -2.0172    4.0085   53.3277 C.3     1  ZINC001023407238    0.1400
     12 H12        -1.3559    4.7918   52.9573 H       1  ZINC001023407238    0.1200
     13 N13        -2.2652    3.0016   52.2929 N.am    1  ZINC001023407238   -0.7200
     14 C14        -1.6417    3.0920   51.1014 C.2     1  ZINC001023407238    0.5200
     15 O15        -0.8764    4.0078   50.8855 O.2     1  ZINC001023407238   -0.5300
     16 C16        -1.8954    2.0552   50.0375 C.3     1  ZINC001023407238   -0.1300
     17 C17        -0.7445    2.0667   49.0296 C.3     1  ZINC001023407238   -0.1100
     18 H18        -0.5486    3.0797   48.6780 H       1  ZINC001023407238    0.1100
     19 C19         0.5293    1.4401   49.6411 C.3     1  ZINC001023407238    0.0600
     20 O20         1.1682    0.7522   48.5252 O.3     1  ZINC001023407238   -0.3500
     21 C21         0.2380    0.3265   47.6587 C.2     1  ZINC001023407238    0.4800
     22 O22         0.3955   -0.5563   46.8487 O.2     1  ZINC001023407238   -0.4600
     23 C23        -1.0413    1.1208   47.8446 C.3     1  ZINC001023407238   -0.1800
     24 C24        -1.4395    3.3613   54.6085 C.3     1  ZINC001023407238    0.1000
     25 N25        -0.0177    2.3310   57.7970 N.pl3   1  ZINC001023407238   -0.4200
     26 C26        -1.2093    1.6409   58.2970 C.3     1  ZINC001023407238    0.0700
     27 C27         1.2544    1.8703   57.8765 C.2     1  ZINC001023407238    0.0100
     28 C28         2.0846    2.7751   57.3046 C.2     1  ZINC001023407238   -0.2000
     29 H29         1.8115    4.9215   55.0831 H       1  ZINC001023407238    0.0600
     30 H30         1.1528    5.9259   56.3967 H       1  ZINC001023407238    0.0600
     31 H31         2.8197    5.3098   56.4977 H       1  ZINC001023407238    0.0700
     32 H32        -3.8196    4.8581   55.9565 H       1  ZINC001023407238    0.0800
     33 H33        -2.7496    6.1215   55.2873 H       1  ZINC001023407238    0.0800
     34 H34        -4.1094    5.4823   52.1913 H       1  ZINC001023407238    0.3900
     35 H35        -2.8781    2.2698   52.4651 H       1  ZINC001023407238    0.4100
     36 H36        -1.9644    1.0703   50.4992 H       1  ZINC001023407238    0.1000
     37 H37        -2.8300    2.2823   49.5245 H       1  ZINC001023407238    0.1100
     38 H38         1.1845    2.2172   50.0346 H       1  ZINC001023407238    0.1200
     39 H39         0.2657    0.7303   50.4252 H       1  ZINC001023407238    0.0800
     40 H40        -1.8686    0.4552   48.0912 H       1  ZINC001023407238    0.1100
     41 H41        -1.2678    1.6915   46.9440 H       1  ZINC001023407238    0.1200
     42 H42        -0.3555    3.2733   54.5332 H       1  ZINC001023407238    0.0900
     43 H43        -1.8897    2.3828   54.7755 H       1  ZINC001023407238    0.0800
     44 H44        -1.5668    0.9403   57.5424 H       1  ZINC001023407238    0.0800
     45 H45        -0.9588    1.0972   59.2080 H       1  ZINC001023407238    0.0900
     46 H46        -1.9887    2.3716   58.5127 H       1  ZINC001023407238    0.0800
     47 H47         1.5564    0.9331   58.3199 H       1  ZINC001023407238    0.1700
     48 H48         3.1574    2.6868   57.2163 H       1  ZINC001023407238    0.1400
@<TRIPOS>BOND
     1     1     2    1
     2     1    29    1
     3     1    30    1
     4     1    31    1
     5     2    28    1
     6     2     3    2
     7     3     4    1
     8     3    25    1
     9     4     5    2
    10     4     6   am
    11     6    24    1
    12     6     7    1
    13     7     8    1
    14     7    32    1
    15     7    33    1
    16     8     9    1
    17     8    10    1
    18     8    11    1
    19    10    34    1
    20    11    12    1
    21    11    13    1
    22    11    24    1
    23    13    14   am
    24    13    35    1
    25    14    15    2
    26    14    16    1
    27    16    17    1
    28    16    36    1
    29    16    37    1
    30    17    18    1
    31    17    23    1
    32    17    19    1
    33    19    20    1
    34    19    38    1
    35    19    39    1
    36    20    21    1
    37    21    22    2
    38    21    23    1
    39    23    40    1
    40    23    41    1
    41    24    42    1
    42    24    43    1
    43    25    26    1
    44    25    27    1
    45    26    44    1
    46    26    45    1
    47    26    46    1
    48    27    28    2
    49    27    47    1
    50    28    48    1
@<TRIPOS>SUBSTRUCTURE
     1 ZINC001023407238        1 TEMP              0 ****  ****    0 ROOT


##########                                Name:      oleObject5.pdb
##########                DOCK_Rotatable_Bonds:                   5
##########                         Heavy_Atoms:                  24
##########                    Molecular_Weight:             323.438
##########                DOCK_Rotatable_Bonds:                   5
##########                       Formal_Charge:         0.000200074
##########                     HBond_Acceptors:                   4
##########                        HBond_Donors:                   2
##########                         Heavy_Atoms:                  24
##########                          Grid_Score:          -24.327965
##########                     Grid_vdw_energy:          -24.129702
##########                      Grid_es_energy:           -0.198263
##########           Internal_energy_repulsive:           12.222024

@<TRIPOS>MOLECULE
oleObject5.pdb
 49 51 1 0 0
SMALL
NO_CHARGES


@<TRIPOS>ATOM
      1 C         -11.2791    1.8050   55.7168 C.3     1  UNL        -0.0394
      2 C         -11.5511    1.7343   54.2173 C.ar    1  UNL        -0.0456
      3 C         -12.5504    2.5750   53.6887 C.ar    1  UNL        -0.0590
      4 C         -12.8674    2.5464   52.3233 C.ar    1  UNL        -0.0620
      5 C         -12.1886    1.6680   51.4701 C.ar    1  UNL        -0.0619
      6 C         -11.1937    0.8245   51.9845 C.ar    1  UNL        -0.0565
      7 C         -10.8548    0.8482   53.3542 C.ar    1  UNL        -0.0188
      8 C          -9.7772   -0.1229   53.8555 C.3     1  UNL         0.0906
      9 N         -10.2882   -1.5030   53.7794 N.am    1  UNL        -0.3025
     10 C         -10.9055   -2.1383   54.8417 C.2     1  UNL         0.2156
     11 O         -11.2161   -1.5434   55.8593 O.2     1  UNL        -0.2774
     12 C         -11.3580   -3.5778   54.5315 C.3     1  UNL         0.0382
     13 C         -11.9530   -3.6919   53.1023 C.3     1  UNL        -0.0292
     14 C         -13.3618   -3.0652   53.0173 C.3     1  UNL        -0.0041
     15 N         -14.2667   -3.6804   54.0034 N.4     1  UNL        -0.3167
     16 C         -13.7939   -3.5491   55.3931 C.3     1  UNL        -0.0041
     17 C         -12.3697   -4.1329   55.5714 C.3     1  UNL        -0.0292
     18 C          -8.4460    0.0643   53.1076 C.ar    1  UNL         0.0681
     19 N          -8.1850   -0.8111   52.1063 N.ar    1  UNL        -0.2587
     20 C          -7.0403   -0.6943   51.4076 C.ar    1  UNL         0.0272
     21 C          -6.0936    0.3070   51.6685 C.ar    1  UNL        -0.0435
     22 C          -6.3521    1.2232   52.6978 C.ar    1  UNL        -0.0559
     23 C          -7.5459    1.1094   53.4352 C.ar    1  UNL        -0.0272
     24 C          -7.8312    2.1104   54.5478 C.3     1  UNL        -0.0379
     25 H         -11.8118    2.6424   56.1843 H       1  UNL         0.0280
     26 H         -10.2145    1.9474   55.9328 H       1  UNL         0.0280
     27 H         -11.6128    0.8918   56.2213 H       1  UNL         0.0280
     28 H         -13.0918    3.2543   54.3414 H       1  UNL         0.0626
     29 H         -13.6412    3.1992   51.9298 H       1  UNL         0.0623
     30 H         -12.4351    1.6368   50.4126 H       1  UNL         0.0623
     31 H         -10.6876    0.1410   51.3093 H       1  UNL         0.0627
     32 H          -9.5683    0.0757   54.9108 H       1  UNL         0.0624
     33 H         -10.5327   -1.8283   52.8532 H       1  UNL         0.1504
     34 H         -10.4553   -4.2009   54.5757 H       1  UNL         0.0402
     35 H         -12.0217   -4.7523   52.8272 H       1  UNL         0.0288
     36 H         -11.2914   -3.2224   52.3638 H       1  UNL         0.0288
     37 H         -13.7638   -3.2072   52.0063 H       1  UNL         0.0428
     38 H         -13.2916   -1.9850   53.2007 H       1  UNL         0.0428
     39 H         -14.3694   -4.6702   53.7820 H       1  UNL         0.1222
     40 H         -14.4857   -4.0679   56.0686 H       1  UNL         0.0428
     41 H         -13.7938   -2.4892   55.6765 H       1  UNL         0.0428
     42 H         -12.4256   -5.2235   55.4604 H       1  UNL         0.0288
     43 H         -12.0106   -3.9409   56.5907 H       1  UNL         0.0288
     44 H          -6.8783   -1.4248   50.6160 H       1  UNL         0.0840
     45 H          -5.1807    0.3718   51.0840 H       1  UNL         0.0639
     46 H          -5.6357    2.0099   52.9171 H       1  UNL         0.0627
     47 H          -7.0206    2.8427   54.6502 H       1  UNL         0.0280
     48 H          -7.9377    1.6060   55.5160 H       1  UNL         0.0280
     49 H          -8.7521    2.6712   54.3473 H       1  UNL         0.0280
@<TRIPOS>BOND
     1     1     2    1
     2     1    25    1
     3     1    26    1
     4     1    27    1
     5     2     3   ar
     6     2     7   ar
     7     3     4   ar
     8     3    28    1
     9     4     5   ar
    10     4    29    1
    11     5     6   ar
    12     5    30    1
    13     6     7   ar
    14     6    31    1
    15     7     8    1
    16     8     9    1
    17     8    18    1
    18     8    32    1
    19     9    10   am
    20     9    33    1
    21    10    11    2
    22    10    12    1
    23    12    13    1
    24    12    17    1
    25    12    34    1
    26    13    14    1
    27    13    35    1
    28    13    36    1
    29    14    15    1
    30    14    37    1
    31    14    38    1
    32    15    16    1
    33    15    39    1
    34    16    17    1
    35    16    40    1
    36    16    41    1
    37    17    42    1
    38    17    43    1
    39    18    19   ar
    40    18    23   ar
    41    19    20   ar
    42    20    21   ar
    43    20    44    1
    44    21    22   ar
    45    21    45    1
    46    22    23   ar
    47    22    46    1
    48    23    24    1
    49    24    47    1
    50    24    48    1
    51    24    49    1
@<TRIPOS>SUBSTRUCTURE
     1 UNL         1 TEMP              0 ****  ****    0 ROOT


##########                                Name:    ZINC000653668607
##########                DOCK_Rotatable_Bonds:                   5
##########                         Heavy_Atoms:                  28
##########                    Molecular_Weight:             379.459
##########                DOCK_Rotatable_Bonds:                   5
##########                       Formal_Charge:          0.00999918
##########                     HBond_Acceptors:                   6
##########                        HBond_Donors:                   2
##########                         Heavy_Atoms:                  28
##########                          Grid_Score:          -24.262762
##########                     Grid_vdw_energy:          -24.097691
##########                      Grid_es_energy:           -0.165072
##########           Internal_energy_repulsive:           24.341080

@<TRIPOS>MOLECULE
ZINC000653668607
 53 56 1 0 0
SMALL
USER_CHARGES


@<TRIPOS>ATOM
      1 C1         -1.2075    1.4286   46.6630 C.3     1  ZINC000653668607    0.0300
      2 O2         -1.1752    2.1907   47.8714 O.3     1  ZINC000653668607   -0.3200
      3 C3         -0.6995    3.4609   47.7871 C.ar    1  ZINC000653668607    0.1300
      4 C4         -0.3496    3.9941   46.5552 C.ar    1  ZINC000653668607   -0.2000
      5 C5          0.1293    5.2848   46.4803 C.ar    1  ZINC000653668607   -0.0800
      6 C6          0.2648    6.0569   47.6271 C.ar    1  ZINC000653668607   -0.1000
      7 C7          0.7807    7.4634   47.4674 C.3     1  ZINC000653668607   -0.0800
      8 C8          1.2717    8.0108   48.8060 C.3     1  ZINC000653668607   -0.1200
      9 C9          0.1675    7.8008   49.8489 C.3     1  ZINC000653668607   -0.1100
     10 C10         0.0540    6.3051   50.1360 C.3     1  ZINC000653668607   -0.0600
     11 H11         0.9452    5.9726   50.6683 H       1  ZINC000653668607    0.1000
     12 C12        -1.1595    6.0544   50.9935 C.2     1  ZINC000653668607    0.5200
     13 O13        -2.1848    6.6690   50.7881 O.2     1  ZINC000653668607   -0.5100
     14 N14        -1.1056    5.1472   51.9888 N.am    1  ZINC000653668607   -0.6700
     15 C15        -2.2323    4.9144   52.7850 C.ar    1  ZINC000653668607    0.1500
     16 C16        -2.4118    5.6299   53.9621 C.ar    1  ZINC000653668607   -0.1100
     17 C17        -3.5242    5.4004   54.7490 C.ar    1  ZINC000653668607   -0.0900
     18 C18        -4.4611    4.4595   54.3683 C.ar    1  ZINC000653668607   -0.1200
     19 C19        -4.2872    3.7402   53.1923 C.ar    1  ZINC000653668607    0.1700
     20 N20        -5.2366    2.7867   52.8075 N.am    1  ZINC000653668607   -0.5800
     21 C21        -6.6581    3.0648   53.0182 C.3     1  ZINC000653668607    0.1100
     22 C22        -7.4776    2.3306   51.9516 C.3     1  ZINC000653668607   -0.1500
     23 C23        -7.1251    0.8403   52.0056 C.3     1  ZINC000653668607    0.1100
     24 N24        -5.6782    0.6831   51.8497 N.am    1  ZINC000653668607   -0.7400
     25 C25        -4.8256    1.6390   52.2478 C.2     1  ZINC000653668607    0.7100
     26 O26        -3.6324    1.4537   52.1050 O.2     1  ZINC000653668607   -0.5800
     27 C27        -3.1747    3.9726   52.3969 C.ar    1  ZINC000653668607   -0.1300
     28 C28        -0.0766    5.5278   48.8522 C.ar    1  ZINC000653668607   -0.0300
     29 C29        -0.5668    4.2316   48.9297 C.ar    1  ZINC000653668607   -0.1500
     30 H30        -1.8422    1.9312   45.9332 H       1  ZINC000653668607    0.0600
     31 H31        -0.1972    1.3370   46.2640 H       1  ZINC000653668607    0.0600
     32 H32        -1.6076    0.4360   46.8701 H       1  ZINC000653668607    0.1000
     33 H33        -0.4514    3.4006   45.6587 H       1  ZINC000653668607    0.1300
     34 H34         0.4018    5.6995   45.5210 H       1  ZINC000653668607    0.1300
     35 H35         1.6051    7.4651   46.7543 H       1  ZINC000653668607    0.0800
     36 H36        -0.0205    8.0995   47.0912 H       1  ZINC000653668607    0.0800
     37 H37         2.1720    7.4782   49.1124 H       1  ZINC000653668607    0.0700
     38 H38         1.4887    9.0746   48.7102 H       1  ZINC000653668607    0.0800
     39 H39         0.4228    8.3323   50.7658 H       1  ZINC000653668607    0.0700
     40 H40        -0.7803    8.1730   49.4600 H       1  ZINC000653668607    0.0800
     41 H41        -0.2857    4.6556   52.1531 H       1  ZINC000653668607    0.4100
     42 H42        -1.6808    6.3659   54.2626 H       1  ZINC000653668607    0.1400
     43 H43        -3.6613    5.9578   55.6639 H       1  ZINC000653668607    0.1300
     44 H44        -5.3295    4.2825   54.9854 H       1  ZINC000653668607    0.1200
     45 H45        -6.9543    2.7175   54.0081 H       1  ZINC000653668607    0.0700
     46 H46        -6.8352    4.1374   52.9393 H       1  ZINC000653668607    0.0900
     47 H47        -8.5409    2.4628   52.1516 H       1  ZINC000653668607    0.1000
     48 H48        -7.2357    2.7285   50.9660 H       1  ZINC000653668607    0.0800
     49 H49        -7.4352    0.4272   52.9655 H       1  ZINC000653668607    0.0700
     50 H50        -7.6376    0.3153   51.1994 H       1  ZINC000653668607    0.0900
     51 H51        -5.3289   -0.1273   51.4468 H       1  ZINC000653668607    0.4200
     52 H52        -3.0375    3.4149   51.4823 H       1  ZINC000653668607    0.1300
     53 H53        -0.8422    3.8194   49.8892 H       1  ZINC000653668607    0.1200
@<TRIPOS>BOND
     1     1     2    1
     2     1    30    1
     3     1    31    1
     4     1    32    1
     5     2     3    1
     6     3    29   ar
     7     3     4   ar
     8     4     5   ar
     9     4    33    1
    10     5     6   ar
    11     5    34    1
    12     6    28   ar
    13     6     7    1
    14     7     8    1
    15     7    35    1
    16     7    36    1
    17     8     9    1
    18     8    37    1
    19     8    38    1
    20     9    10    1
    21     9    39    1
    22     9    40    1
    23    10    11    1
    24    10    12    1
    25    10    28    1
    26    12    13    2
    27    12    14   am
    28    14    15    1
    29    14    41    1
    30    15    27   ar
    31    15    16   ar
    32    16    17   ar
    33    16    42    1
    34    17    18   ar
    35    17    43    1
    36    18    19   ar
    37    18    44    1
    38    19    20    1
    39    19    27   ar
    40    20    25   am
    41    20    21    1
    42    21    22    1
    43    21    45    1
    44    21    46    1
    45    22    23    1
    46    22    47    1
    47    22    48    1
    48    23    24    1
    49    23    49    1
    50    23    50    1
    51    24    25   am
    52    24    51    1
    53    25    26    2
    54    27    52    1
    55    28    29   ar
    56    29    53    1
@<TRIPOS>SUBSTRUCTURE
     1 ZINC000653668607        1 TEMP              0 ****  ****    0 ROOT


##########                                Name:    ZINC001010141213
##########                DOCK_Rotatable_Bonds:                   4
##########                         Heavy_Atoms:                  24
##########                    Molecular_Weight:             330.346
##########                DOCK_Rotatable_Bonds:                   4
##########                       Formal_Charge:          -0.0100003
##########                     HBond_Acceptors:                   9
##########                        HBond_Donors:                   1
##########                         Heavy_Atoms:                  24
##########                          Grid_Score:          -24.022583
##########                     Grid_vdw_energy:          -23.883801
##########                      Grid_es_energy:           -0.138783
##########           Internal_energy_repulsive:           15.639670

@<TRIPOS>MOLECULE
ZINC001010141213
 42 44 1 0 0
SMALL
USER_CHARGES


@<TRIPOS>ATOM
      1 C1        -12.4108    2.9337   60.7469 C.3     1  ZINC001010141213   -0.0800
      2 C2        -11.1665    2.0876   60.8303 C.2     1  ZINC001010141213   -0.1500
      3 C3        -11.0487    0.8199   61.3731 C.2     1  ZINC001010141213   -0.0400
      4 C4        -12.1190    0.0202   61.9900 C.2     1  ZINC001010141213    0.6000
      5 O5        -12.5487    0.3223   63.0869 O.2     1  ZINC001010141213   -0.5100
      6 N6        -12.6232   -1.0469   61.3392 N.am    1  ZINC001010141213   -0.6100
      7 C7        -13.6965   -1.8510   61.9403 C.3     1  ZINC001010141213    0.0900
      8 C8        -14.8725   -1.9115   60.9576 C.3     1  ZINC001010141213    0.0700
      9 N9        -14.3593   -2.2917   59.6340 N.am    1  ZINC001010141213   -0.6000
     10 C10       -14.8642   -3.3581   58.9828 C.2     1  ZINC001010141213    0.5900
     11 O11       -15.7522   -4.0153   59.4899 O.2     1  ZINC001010141213   -0.5200
     12 C12       -14.3379   -3.7289   57.6514 C.2     1  ZINC001010141213    0.0300
     13 N13       -13.5662   -4.7846   57.5230 N.2     1  ZINC001010141213   -0.1800
     14 N14       -13.0846   -5.1478   56.3897 N.am    1  ZINC001010141213   -0.4400
     15 C15       -13.3420   -4.4657   55.2582 C.2     1  ZINC001010141213    0.4800
     16 O16       -12.8696   -4.8367   54.1965 O.2     1  ZINC001010141213   -0.5100
     17 C17       -14.1635   -3.3175   55.3084 C.2     1  ZINC001010141213   -0.1800
     18 C18       -14.6718   -2.9484   56.5184 C.2     1  ZINC001010141213   -0.0400
     19 C19       -13.2859   -1.4876   59.0328 C.3     1  ZINC001010141213    0.1000
     20 C20       -12.1139   -1.4237   60.0131 C.3     1  ZINC001010141213    0.1000
     21 N21        -9.7397    0.4598   61.2215 N.pl3   1  ZINC001010141213   -0.2700
     22 C22        -9.1586   -0.8131   61.6551 C.3     1  ZINC001010141213    0.0900
     23 N23        -9.0963    1.4075   60.6403 N.2     1  ZINC001010141213   -0.2800
     24 C24        -9.8885    2.4135   60.3707 C.2     1  ZINC001010141213    0.0100
     25 H25       -12.9327    2.7215   59.8138 H       1  ZINC001010141213    0.0700
     26 H26       -13.0638    2.7035   61.5887 H       1  ZINC001010141213    0.0600
     27 H27       -12.1360    3.9880   60.7779 H       1  ZINC001010141213    0.0700
     28 H28       -13.3319   -2.8592   62.1371 H       1  ZINC001010141213    0.0800
     29 H29       -14.0220   -1.3885   62.8721 H       1  ZINC001010141213    0.1000
     30 H30       -15.5949   -2.6540   61.2969 H       1  ZINC001010141213    0.1400
     31 H31       -15.3501   -0.9336   60.8978 H       1  ZINC001010141213    0.0800
     32 H32       -12.5195   -5.9351   56.3477 H       1  ZINC001010141213    0.4500
     33 H33       -14.3856   -2.7523   54.4153 H       1  ZINC001010141213    0.1700
     34 H34       -15.3054   -2.0788   56.6114 H       1  ZINC001010141213    0.1700
     35 H35       -12.9605   -1.9500   58.1010 H       1  ZINC001010141213    0.1100
     36 H36       -13.6506   -0.4793   58.8360 H       1  ZINC001010141213    0.0800
     37 H37       -11.3923   -0.6809   59.6727 H       1  ZINC001010141213    0.1100
     38 H38       -11.6351   -2.4008   60.0751 H       1  ZINC001010141213    0.0800
     39 H39        -9.1544   -1.5139   60.8202 H       1  ZINC001010141213    0.0900
     40 H40        -8.1366   -0.6484   61.9964 H       1  ZINC001010141213    0.1000
     41 H41        -9.7524   -1.2243   62.4715 H       1  ZINC001010141213    0.0900
     42 H42        -9.6032    3.3351   59.8853 H       1  ZINC001010141213    0.1900
@<TRIPOS>BOND
     1     1     2    1
     2     1    25    1
     3     1    26    1
     4     1    27    1
     5     2    24    1
     6     2     3    2
     7     3     4    1
     8     3    21    1
     9     4     5    2
    10     4     6   am
    11     6    20    1
    12     6     7    1
    13     7     8    1
    14     7    28    1
    15     7    29    1
    16     8     9    1
    17     8    30    1
    18     8    31    1
    19     9    10   am
    20     9    19    1
    21    10    11    2
    22    10    12    1
    23    12    18    1
    24    12    13    2
    25    13    14    1
    26    14    15   am
    27    14    32    1
    28    15    16    2
    29    15    17    1
    30    17    18    2
    31    17    33    1
    32    18    34    1
    33    19    20    1
    34    19    35    1
    35    19    36    1
    36    20    37    1
    37    20    38    1
    38    21    22    1
    39    21    23    1
    40    22    39    1
    41    22    40    1
    42    22    41    1
    43    23    24    2
    44    24    42    1
@<TRIPOS>SUBSTRUCTURE
     1 ZINC001010141213        1 TEMP              0 ****  ****    0 ROOT


##########                                Name:    ZINC000950547210
##########                DOCK_Rotatable_Bonds:                   5
##########                         Heavy_Atoms:                  25
##########                    Molecular_Weight:              346.47
##########                DOCK_Rotatable_Bonds:                   5
##########                       Formal_Charge:         5.58794e-07
##########                     HBond_Acceptors:                   5
##########                        HBond_Donors:                   1
##########                         Heavy_Atoms:                  25
##########                          Grid_Score:          -24.014883
##########                     Grid_vdw_energy:          -23.109966
##########                      Grid_es_energy:           -0.904916
##########           Internal_energy_repulsive:           22.038054

@<TRIPOS>MOLECULE
ZINC000950547210
 55 58 1 0 0
SMALL
USER_CHARGES


@<TRIPOS>ATOM
      1 O1         -1.9376    1.4785   51.7594 O.2     1  ZINC000950547210   -0.5200
      2 C2         -1.2288    2.4468   51.9356 C.2     1  ZINC000950547210    0.5200
      3 N3         -1.6025    3.4062   52.8053 N.am    1  ZINC000950547210   -0.7300
      4 C4         -2.8677    3.2824   53.5334 C.3     1  ZINC000950547210    0.1300
      5 H5         -2.9038    2.3170   54.0384 H       1  ZINC000950547210    0.0900
      6 C6         -2.9731    4.4046   54.5687 C.3     1  ZINC000950547210   -0.1300
      7 C7         -4.2793    4.2569   55.3524 C.3     1  ZINC000950547210   -0.1300
      8 C8         -5.4643    4.3751   54.3888 C.3     1  ZINC000950547210    0.1000
      9 N9         -5.2948    3.3941   53.3082 N.am    1  ZINC000950547210   -0.6100
     10 C10        -6.2749    2.5156   53.0183 C.2     1  ZINC000950547210    0.5600
     11 O11        -6.1223    1.7085   52.1213 O.2     1  ZINC000950547210   -0.5200
     12 C12        -7.5292    2.5329   53.7866 C.2     1  ZINC000950547210   -0.1400
     13 C13        -8.3657    3.5413   53.6195 C.2     1  ZINC000950547210   -0.1500
     14 C14        -9.6648    3.6472   54.3673 C.3     1  ZINC000950547210    0.0900
     15 O15        -9.9991    2.3869   54.9516 O.3     1  ZINC000950547210   -0.3700
     16 C16        -8.9244    1.8147   55.7068 C.3     1  ZINC000950547210    0.0600
     17 C17        -7.8180    1.3985   54.7312 C.3     1  ZINC000950547210   -0.1100
     18 C18        -4.0367    3.3886   52.5492 C.3     1  ZINC000950547210    0.1000
     19 C19         0.0726    2.5742   51.1866 C.3     1  ZINC000950547210   -0.1000
     20 H20         0.8943    2.2585   51.8295 H       1  ZINC000950547210    0.1000
     21 C21         0.2813    4.0318   50.7709 C.3     1  ZINC000950547210   -0.1100
     22 C22         0.3799    4.1184   49.2466 C.3     1  ZINC000950547210   -0.0900
     23 C23         1.5620    3.2759   48.7632 C.3     1  ZINC000950547210   -0.1100
     24 C24         1.3533    1.8184   49.1788 C.3     1  ZINC000950547210   -0.1100
     25 C25         0.0319    1.6890   49.9393 C.3     1  ZINC000950547210   -0.0600
     26 C26        -1.1214    2.1321   49.0368 C.3     1  ZINC000950547210   -0.1300
     27 C27        -0.9126    3.5898   48.6212 C.3     1  ZINC000950547210   -0.1200
     28 H28        -1.0336    4.1787   52.9491 H       1  ZINC000950547210    0.4000
     29 H29        -2.1288    4.3454   55.2556 H       1  ZINC000950547210    0.0800
     30 H30        -2.9612    5.3691   54.0612 H       1  ZINC000950547210    0.0700
     31 H31        -4.3028    3.2823   55.8401 H       1  ZINC000950547210    0.0700
     32 H32        -4.3427    5.0426   56.1052 H       1  ZINC000950547210    0.0900
     33 H33        -6.3920    4.1724   54.9239 H       1  ZINC000950547210    0.0900
     34 H34        -5.4947    5.3803   53.9684 H       1  ZINC000950547210    0.0700
     35 H35        -8.1056    4.3205   52.9183 H       1  ZINC000950547210    0.1200
     36 H36        -9.5694    4.3962   55.1534 H       1  ZINC000950547210    0.0700
     37 H37       -10.4547    3.9473   53.6787 H       1  ZINC000950547210    0.1100
     38 H38        -8.5387    2.5517   56.4111 H       1  ZINC000950547210    0.0600
     39 H39        -9.2827    0.9389   56.2479 H       1  ZINC000950547210    0.1000
     40 H40        -8.1409    0.5227   54.1683 H       1  ZINC000950547210    0.0900
     41 H41        -6.9135    1.1576   55.2896 H       1  ZINC000950547210    0.0900
     42 H42        -3.9501    4.3134   51.9787 H       1  ZINC000950547210    0.0700
     43 H43        -4.0230    2.5357   51.8707 H       1  ZINC000950547210    0.1000
     44 H44        -0.5608    4.6320   51.1153 H       1  ZINC000950547210    0.0700
     45 H45         1.2021    4.4084   51.2164 H       1  ZINC000950547210    0.0700
     46 H46         0.5285    5.1568   48.9505 H       1  ZINC000950547210    0.0700
     47 H47         1.6321    3.3376   47.6772 H       1  ZINC000950547210    0.0600
     48 H48         2.4828    3.6525   49.2087 H       1  ZINC000950547210    0.0600
     49 H49         1.3243    1.1877   48.2901 H       1  ZINC000950547210    0.0700
     50 H50         2.1749    1.5027   49.8217 H       1  ZINC000950547210    0.0600
     51 H51        -0.1167    0.6507   50.2353 H       1  ZINC000950547210    0.0800
     52 H52        -1.1503    1.5016   48.1481 H       1  ZINC000950547210    0.0600
     53 H53        -2.0627    2.0401   49.5785 H       1  ZINC000950547210    0.0900
     54 H54        -1.7548    4.1899   48.9655 H       1  ZINC000950547210    0.0600
     55 H55        -0.8425    3.6515   47.5352 H       1  ZINC000950547210    0.0600
@<TRIPOS>BOND
     1     1     2    2
     2     2     3   am
     3     2    19    1
     4     3     4    1
     5     3    28    1
     6     4     5    1
     7     4    18    1
     8     4     6    1
     9     6     7    1
    10     6    29    1
    11     6    30    1
    12     7     8    1
    13     7    31    1
    14     7    32    1
    15     8     9    1
    16     8    33    1
    17     8    34    1
    18     9    10   am
    19     9    18    1
    20    10    11    2
    21    10    12    1
    22    12    17    1
    23    12    13    2
    24    13    14    1
    25    13    35    1
    26    14    15    1
    27    14    36    1
    28    14    37    1
    29    15    16    1
    30    16    17    1
    31    16    38    1
    32    16    39    1
    33    17    40    1
    34    17    41    1
    35    18    42    1
    36    18    43    1
    37    19    20    1
    38    19    25    1
    39    19    21    1
    40    21    22    1
    41    21    44    1
    42    21    45    1
    43    22    27    1
    44    22    23    1
    45    22    46    1
    46    23    24    1
    47    23    47    1
    48    23    48    1
    49    24    25    1
    50    24    49    1
    51    24    50    1
    52    25    26    1
    53    25    51    1
    54    26    27    1
    55    26    52    1
    56    26    53    1
    57    27    54    1
    58    27    55    1
@<TRIPOS>SUBSTRUCTURE
     1 ZINC000950547210        1 TEMP              0 ****  ****    0 ROOT


##########                                Name:    ZINC000836820897
##########                DOCK_Rotatable_Bonds:                   5
##########                         Heavy_Atoms:                  22
##########                    Molecular_Weight:             330.355
##########                DOCK_Rotatable_Bonds:                   5
##########                       Formal_Charge:          -0.0200003
##########                     HBond_Acceptors:                   8
##########                        HBond_Donors:                   1
##########                         Heavy_Atoms:                  22
##########                          Grid_Score:          -23.880257
##########                     Grid_vdw_energy:          -22.346094
##########                      Grid_es_energy:           -1.534162
##########           Internal_energy_repulsive:           10.043939

@<TRIPOS>MOLECULE
ZINC000836820897
 38 40 1 0 0
SMALL
USER_CHARGES


@<TRIPOS>ATOM
      1 O1         -2.0938    1.2536   47.6777 O.2     1  ZINC000836820897   -0.5200
      2 C2         -1.2325    1.6578   48.4344 C.2     1  ZINC000836820897    0.5800
      3 C3         -1.5209    2.7816   49.3490 C.ar    1  ZINC000836820897   -0.1600
      4 C4         -0.8625    4.0023   49.1884 C.ar    1  ZINC000836820897   -0.0100
      5 C5         -1.1358    5.0478   50.0443 C.ar    1  ZINC000836820897   -0.1700
      6 C6         -2.0623    4.8888   51.0632 C.ar    1  ZINC000836820897    0.2200
      7 F7         -2.3265    5.9166   51.8993 F       1  ZINC000836820897   -0.1100
      8 C8         -2.7195    3.6786   51.2269 C.ar    1  ZINC000836820897   -0.7200
      9 S9         -3.8965    3.4854   52.5239 S.o2    1  ZINC000836820897    2.7000
     10 O10        -4.3380    4.7928   52.8630 O.2     1  ZINC000836820897   -0.9400
     11 O11        -4.7784    2.4492   52.1144 O.2     1  ZINC000836820897   -0.9400
     12 N12        -3.0802    2.9102   53.8449 N.am    1  ZINC000836820897   -1.0800
     13 C13        -1.9851    3.6905   54.4263 C.3     1  ZINC000836820897    0.0700
     14 C14        -2.2793    4.4764   55.7057 C.3     1  ZINC000836820897   -0.1800
     15 C15        -1.4127    3.2169   55.7638 C.3     1  ZINC000836820897   -0.1900
     16 C16        -2.4574    2.6284   50.3738 C.ar    1  ZINC000836820897    0.0600
     17 N17        -0.0163    1.0771   48.4430 N.am    1  ZINC000836820897   -0.6200
     18 C18         0.4059   -0.0402   47.5858 C.3     1  ZINC000836820897    0.0900
     19 C19         1.8791   -0.3483   47.9270 C.3     1  ZINC000836820897   -0.1600
     20 C20         2.3755    0.9806   48.5554 C.3     1  ZINC000836820897    0.0800
     21 H21         2.6610    1.6952   47.7834 H       1  ZINC000836820897    0.1100
     22 F22         3.4349    0.7520   49.4399 F       1  ZINC000836820897   -0.1900
     23 C23         1.1131    1.4612   49.3093 C.3     1  ZINC000836820897    0.0800
     24 H24        -0.1403    4.1271   48.3952 H       1  ZINC000836820897    0.1500
     25 H25        -0.6269    5.9925   49.9212 H       1  ZINC000836820897    0.1600
     26 H26        -3.3272    2.0565   54.2337 H       1  ZINC000836820897    0.4200
     27 H27        -1.2923    4.1337   53.7111 H       1  ZINC000836820897    0.1400
     28 H28        -1.7801    5.4371   55.8322 H       1  ZINC000836820897    0.1100
     29 H29        -3.2877    4.4129   56.1147 H       1  ZINC000836820897    0.1000
     30 H30        -1.8508    2.3247   56.2112 H       1  ZINC000836820897    0.1000
     31 H31        -0.3433    3.3488   55.9286 H       1  ZINC000836820897    0.1000
     32 H32        -2.9699    1.6864   50.5021 H       1  ZINC000836820897    0.1600
     33 H33        -0.2120   -0.9155   47.7864 H       1  ZINC000836820897    0.0800
     34 H34         0.3199    0.2442   46.5370 H       1  ZINC000836820897    0.0800
     35 H35         1.9458   -1.1639   48.6469 H       1  ZINC000836820897    0.0900
     36 H36         2.4432   -0.5823   47.0241 H       1  ZINC000836820897    0.1000
     37 H37         1.1409    2.5424   49.4451 H       1  ZINC000836820897    0.1000
     38 H38         1.0328    0.9588   50.2733 H       1  ZINC000836820897    0.0900
@<TRIPOS>BOND
     1     1     2    2
     2     2     3    1
     3     2    17   am
     4     3    16   ar
     5     3     4   ar
     6     4     5   ar
     7     4    24    1
     8     5     6   ar
     9     5    25    1
    10     6     7    1
    11     6     8   ar
    12     8     9    1
    13     8    16   ar
    14     9    10    2
    15     9    11    2
    16     9    12   am
    17    12    13    1
    18    12    26    1
    19    13    15    1
    20    13    14    1
    21    13    27    1
    22    14    15    1
    23    14    28    1
    24    14    29    1
    25    15    30    1
    26    15    31    1
    27    16    32    1
    28    17    23    1
    29    17    18    1
    30    18    19    1
    31    18    33    1
    32    18    34    1
    33    19    20    1
    34    19    35    1
    35    19    36    1
    36    20    21    1
    37    20    22    1
    38    20    23    1
    39    23    37    1
    40    23    38    1
@<TRIPOS>SUBSTRUCTURE
     1 ZINC000836820897        1 TEMP              0 ****  ****    0 ROOT


##########                                Name:    ZINC000004040798
##########                DOCK_Rotatable_Bonds:                   3
##########                         Heavy_Atoms:                  22
##########                    Molecular_Weight:             361.151
##########                DOCK_Rotatable_Bonds:                   3
##########                       Formal_Charge:           0.0200003
##########                     HBond_Acceptors:                   6
##########                        HBond_Donors:                   1
##########                         Heavy_Atoms:                  22
##########                          Grid_Score:          -23.761681
##########                     Grid_vdw_energy:          -24.155367
##########                      Grid_es_energy:            0.393687
##########           Internal_energy_repulsive:            1.882582

@<TRIPOS>MOLECULE
ZINC000004040798
 31 33 1 0 0
SMALL
USER_CHARGES


@<TRIPOS>ATOM
      1 O1         -7.4752    1.4083   54.6061 O.2     1  ZINC000004040798   -0.4800
      2 C2         -7.0670    1.8680   53.5562 C.2     1  ZINC000004040798    0.6100
      3 N3         -7.6492    1.5135   52.3936 N.am    1  ZINC000004040798   -0.6600
      4 C4         -8.7189    0.6127   52.3934 C.ar    1  ZINC000004040798    0.2300
      5 C5         -9.9988    1.0521   52.7046 C.ar    1  ZINC000004040798   -0.1300
      6 C6        -11.0534    0.1598   52.7038 C.ar    1  ZINC000004040798   -0.0100
      7 C7        -10.8360   -1.1699   52.3935 C.ar    1  ZINC000004040798   -0.0600
      8 N8        -11.9687   -2.1228   52.3937 N.pl3   1  ZINC000004040798    0.0300
      9 O9        -13.0906   -1.7353   52.6670 O.2     1  ZINC000004040798   -0.1500
     10 O10       -11.7789   -3.2946   52.1205 O.2     1  ZINC000004040798   -0.1500
     11 C11        -9.5629   -1.6116   52.0825 C.ar    1  ZINC000004040798    0.0000
     12 C12        -8.5044   -0.7236   52.0763 C.ar    1  ZINC000004040798   -0.1400
     13 Br13       -6.7639   -1.3280   51.6510 Br      1  ZINC000004040798    0.0000
     14 C14        -5.9430    2.8145   53.5564 C.2     1  ZINC000004040798   -0.0500
     15 C15        -5.7127    3.7543   54.5096 C.2     1  ZINC000004040798   -0.0800
     16 C16        -4.4974    4.4573   54.1002 C.ar    1  ZINC000004040798   -0.1500
     17 C17        -3.7516    5.5076   54.6399 C.ar    1  ZINC000004040798   -0.0500
     18 C18        -2.6304    5.9448   53.9922 C.ar    1  ZINC000004040798   -0.1400
     19 C19        -2.2293    5.3525   52.8028 C.ar    1  ZINC000004040798   -0.0700
     20 C20        -2.9515    4.3148   52.2537 C.ar    1  ZINC000004040798   -0.1100
     21 C21        -4.0949    3.8526   52.8945 C.ar    1  ZINC000004040798    0.0800
     22 O22        -4.9806    2.8773   52.6125 O.3     1  ZINC000004040798   -0.1900
     23 H23        -7.3264    1.8833   51.5569 H       1  ZINC000004040798    0.4300
     24 H24       -10.1696    2.0905   52.9476 H       1  ZINC000004040798    0.1800
     25 H25       -12.0489    0.5012   52.9462 H       1  ZINC000004040798    0.1700
     26 H26        -9.3964   -2.6509   51.8405 H       1  ZINC000004040798    0.1700
     27 H27        -6.3071    3.9444   55.3912 H       1  ZINC000004040798    0.1800
     28 H28        -4.0596    5.9724   55.5647 H       1  ZINC000004040798    0.1400
     29 H29        -2.0528    6.7569   54.4084 H       1  ZINC000004040798    0.1400
     30 H30        -1.3415    5.7091   52.3016 H       1  ZINC000004040798    0.1400
     31 H31        -2.6294    3.8616   51.3278 H       1  ZINC000004040798    0.1400
@<TRIPOS>BOND
     1     1     2    2
     2     2     3   am
     3     2    14    1
     4     3     4    1
     5     3    23    1
     6     4    12   ar
     7     4     5   ar
     8     5     6   ar
     9     5    24    1
    10     6     7   ar
    11     6    25    1
    12     7     8    1
    13     7    11   ar
    14     8     9    2
    15     8    10    2
    16    11    12   ar
    17    11    26    1
    18    12    13    1
    19    14    22    1
    20    14    15    2
    21    15    16    1
    22    15    27    1
    23    16    21   ar
    24    16    17   ar
    25    17    18   ar
    26    17    28    1
    27    18    19   ar
    28    18    29    1
    29    19    20   ar
    30    19    30    1
    31    20    21   ar
    32    20    31    1
    33    21    22    1
@<TRIPOS>SUBSTRUCTURE
     1 ZINC000004040798        1 TEMP              0 ****  ****    0 ROOT


##########                                Name:    ZINC000469391664
##########                DOCK_Rotatable_Bonds:                   6
##########                         Heavy_Atoms:                  29
##########                    Molecular_Weight:             408.524
##########                DOCK_Rotatable_Bonds:                   6
##########                       Formal_Charge:         -0.00999999
##########                     HBond_Acceptors:                   7
##########                        HBond_Donors:                   0
##########                         Heavy_Atoms:                  29
##########                          Grid_Score:          -23.556370
##########                     Grid_vdw_energy:          -22.936218
##########                      Grid_es_energy:           -0.620152
##########           Internal_energy_repulsive:           22.243786

@<TRIPOS>MOLECULE
ZINC000469391664
 53 56 1 0 0
SMALL
USER_CHARGES


@<TRIPOS>ATOM
      1 C1        -12.5012   -2.0204   52.1456 C.3     1  ZINC000469391664   -0.1500
      2 C2        -12.1060   -2.2830   53.6002 C.3     1  ZINC000469391664   -0.1000
      3 H3        -11.5043   -3.1902   53.6549 H       1  ZINC000469391664    0.0800
      4 C4        -13.3682   -2.4563   54.4481 C.3     1  ZINC000469391664   -0.1300
      5 C5        -12.9685   -2.7532   55.8968 C.3     1  ZINC000469391664    0.1100
      6 N6        -12.0675   -1.6917   56.3659 N.am    1  ZINC000469391664   -0.6100
      7 C7        -12.3348   -1.0160   57.5010 C.2     1  ZINC000469391664    0.5600
      8 O8        -13.3295   -1.2828   58.1476 O.2     1  ZINC000469391664   -0.5000
      9 C9        -11.4207    0.0471   57.9591 C.ar    1  ZINC000469391664   -0.1100
     10 C10       -11.4209    1.2935   57.3290 C.ar    1  ZINC000469391664   -0.0900
     11 C11       -10.5646    2.2830   57.7621 C.ar    1  ZINC000469391664   -0.1000
     12 C12        -9.7018    2.0479   58.8202 C.ar    1  ZINC000469391664   -0.0900
     13 C13        -9.6896    0.8209   59.4526 C.ar    1  ZINC000469391664   -0.1000
     14 C14       -10.5495   -0.1858   59.0343 C.ar    1  ZINC000469391664    0.1500
     15 N15       -10.5390   -1.4237   59.6704 N.am    1  ZINC000469391664   -0.5800
     16 C16        -9.5983   -2.4608   59.2395 C.3     1  ZINC000469391664    0.0900
     17 C17       -11.3945   -1.6683   60.6828 C.2     1  ZINC000469391664    0.6100
     18 O18       -11.3853   -2.7507   61.2391 O.2     1  ZINC000469391664   -0.5200
     19 C19       -12.3354   -0.6309   61.1136 C.2     1  ZINC000469391664   -0.2600
     20 C20       -13.6978   -0.7424   61.1034 C.2     1  ZINC000469391664   -0.0500
     21 C21       -14.3386    0.3837   61.5623 C.2     1  ZINC000469391664   -0.1500
     22 C22       -13.5317    1.3839   61.9358 C.2     1  ZINC000469391664   -0.2600
     23 S23       -11.8931    0.9538   61.7337 S.3     1  ZINC000469391664    0.2300
     24 C24       -10.8695   -1.3809   55.5743 C.3     1  ZINC000469391664    0.1000
     25 C25       -11.2930   -1.0992   54.1292 C.3     1  ZINC000469391664    0.1300
     26 H26       -11.9024   -0.1960   54.0983 H       1  ZINC000469391664    0.1000
     27 N27       -10.1012   -0.9137   53.2977 N.pl3   1  ZINC000469391664   -0.4500
     28 C28        -9.5628    0.2820   52.9051 C.2     1  ZINC000469391664   -0.0500
     29 C29        -8.4800   -0.0050   52.1576 C.2     1  ZINC000469391664   -0.0300
     30 N30        -8.3605   -1.3394   52.0954 N.2     1  ZINC000469391664   -0.4900
     31 C31        -9.3251   -1.8903   52.7803 C.2     1  ZINC000469391664    0.1800
     32 H32       -11.6023   -1.8974   51.5414 H       1  ZINC000469391664    0.0600
     33 H33       -13.0799   -2.8637   51.7685 H       1  ZINC000469391664    0.0600
     34 H34       -13.1029   -1.1132   52.0907 H       1  ZINC000469391664    0.0600
     35 H35       -13.9581   -1.5404   54.4139 H       1  ZINC000469391664    0.0700
     36 H36       -13.9586   -3.2847   54.0566 H       1  ZINC000469391664    0.0900
     37 H37       -13.8598   -2.7796   56.5237 H       1  ZINC000469391664    0.1000
     38 H38       -12.4568   -3.7145   55.9451 H       1  ZINC000469391664    0.0800
     39 H39       -12.0910    1.4817   56.5033 H       1  ZINC000469391664    0.1400
     40 H40       -10.5661    3.2462   57.2739 H       1  ZINC000469391664    0.1400
     41 H41        -9.0343    2.8294   59.1521 H       1  ZINC000469391664    0.1400
     42 H42        -9.0138    0.6453   60.2765 H       1  ZINC000469391664    0.1400
     43 H43        -8.7061   -2.4243   59.8645 H       1  ZINC000469391664    0.0600
     44 H44       -10.0684   -3.4397   59.3340 H       1  ZINC000469391664    0.0900
     45 H45        -9.3206   -2.2899   58.1995 H       1  ZINC000469391664    0.0700
     46 H46       -14.2187   -1.6270   60.7679 H       1  ZINC000469391664    0.1500
     47 H47       -15.4149    0.4563   61.6170 H       1  ZINC000469391664    0.1400
     48 H48       -13.8723    2.3348   62.3181 H       1  ZINC000469391664    0.1600
     49 H49       -10.3758   -0.5018   55.9883 H       1  ZINC000469391664    0.1000
     50 H50       -10.1866   -2.2302   55.5961 H       1  ZINC000469391664    0.0800
     51 H51        -9.9351    1.2663   53.1479 H       1  ZINC000469391664    0.1700
     52 H52        -7.8230    0.7136   51.6901 H       1  ZINC000469391664    0.1700
     53 H53        -9.4810   -2.9515   52.9066 H       1  ZINC000469391664    0.2000
@<TRIPOS>BOND
     1     1     2    1
     2     1    32    1
     3     1    33    1
     4     1    34    1
     5     2     3    1
     6     2    25    1
     7     2     4    1
     8     4     5    1
     9     4    35    1
    10     4    36    1
    11     5     6    1
    12     5    37    1
    13     5    38    1
    14     6     7   am
    15     6    24    1
    16     7     8    2
    17     7     9    1
    18     9    14   ar
    19     9    10   ar
    20    10    11   ar
    21    10    39    1
    22    11    12   ar
    23    11    40    1
    24    12    13   ar
    25    12    41    1
    26    13    14   ar
    27    13    42    1
    28    14    15    1
    29    15    16    1
    30    15    17   am
    31    16    43    1
    32    16    44    1
    33    16    45    1
    34    17    18    2
    35    17    19    1
    36    19    23    1
    37    19    20    2
    38    20    21    1
    39    20    46    1
    40    21    22    2
    41    21    47    1
    42    22    23    1
    43    22    48    1
    44    24    25    1
    45    24    49    1
    46    24    50    1
    47    25    26    1
    48    25    27    1
    49    27    31    1
    50    27    28    1
    51    28    29    2
    52    28    51    1
    53    29    30    1
    54    29    52    1
    55    30    31    2
    56    31    53    1
@<TRIPOS>SUBSTRUCTURE
     1 ZINC000469391664        1 TEMP              0 ****  ****    0 ROOT


##########                                Name:    ZINC001211202056
##########                DOCK_Rotatable_Bonds:                   4
##########                         Heavy_Atoms:                  23
##########                    Molecular_Weight:             386.181
##########                DOCK_Rotatable_Bonds:                   4
##########                       Formal_Charge:           0.0199999
##########                     HBond_Acceptors:                  11
##########                        HBond_Donors:                   3
##########                         Heavy_Atoms:                  23
##########                          Grid_Score:          -23.520437
##########                     Grid_vdw_energy:          -21.735571
##########                      Grid_es_energy:           -1.784867
##########           Internal_energy_repulsive:            4.944594

@<TRIPOS>MOLECULE
ZINC001211202056
 31 32 1 0 0
SMALL
USER_CHARGES


@<TRIPOS>ATOM
      1 N1        -10.8322    5.7363   54.3072 N.pl3   1  ZINC001211202056   -0.8500
      2 C2         -9.8481    4.8706   53.8219 C.ar    1  ZINC001211202056    0.2900
      3 C3         -9.9003    4.4245   52.5082 C.ar    1  ZINC001211202056   -0.2000
      4 C4         -8.9260    3.5687   52.0316 C.ar    1  ZINC001211202056    0.0400
      5 C5         -7.8998    3.1559   52.8608 C.ar    1  ZINC001211202056   -0.7300
      6 S6         -6.6597    2.0644   52.2481 S.o2    1  ZINC001211202056    2.6900
      7 O7         -7.0301    1.7446   50.9141 O.2     1  ZINC001211202056   -0.9400
      8 O8         -5.4090    2.6463   52.5892 O.2     1  ZINC001211202056   -0.9300
      9 N9         -6.7729    0.6579   53.1149 N.am    1  ZINC001211202056   -1.0500
     10 C10        -7.9594   -0.0807   53.0966 C.ar    1  ZINC001211202056    0.1600
     11 C11        -9.0091    0.2478   53.9496 C.ar    1  ZINC001211202056   -0.1200
     12 C12       -10.1657   -0.5139   53.8944 C.ar    1  ZINC001211202056   -0.0800
     13 C13       -10.2396   -1.5662   53.0020 C.ar    1  ZINC001211202056    0.0400
     14 C14       -11.4944   -2.3982   52.9370 C.3     1  ZINC001211202056    0.5300
     15 F15       -12.5910   -1.5689   52.6785 F       1  ZINC001211202056   -0.1700
     16 F16       -11.3740   -3.3446   51.9137 F       1  ZINC001211202056   -0.1600
     17 F17       -11.6831   -3.0538   54.1584 F       1  ZINC001211202056   -0.1700
     18 N18        -9.2275   -1.8527   52.2057 N.ar    1  ZINC001211202056   -0.4100
     19 C19        -8.1110   -1.1514   52.2220 C.ar    1  ZINC001211202056    0.1600
     20 Cl20       -6.8133   -1.5760   51.1499 Cl      1  ZINC001211202056    0.0000
     21 C21        -7.8441    3.5980   54.1703 C.ar    1  ZINC001211202056    0.0400
     22 C22        -8.8116    4.4587   54.6519 C.ar    1  ZINC001211202056   -0.1400
     23 Cl23       -8.7414    5.0134   56.2955 Cl      1  ZINC001211202056   -0.0500
     24 H24       -10.7925    6.0504   55.2241 H       1  ZINC001211202056    0.4100
     25 H25       -11.5526    6.0260   53.7260 H       1  ZINC001211202056    0.4100
     26 H26       -10.7018    4.7457   51.8597 H       1  ZINC001211202056    0.1400
     27 H27        -8.9663    3.2214   51.0097 H       1  ZINC001211202056    0.1500
     28 H28        -6.0158    0.3467   53.6352 H       1  ZINC001211202056    0.4400
     29 H29        -8.9242    1.0757   54.6379 H       1  ZINC001211202056    0.2000
     30 H30       -10.9999   -0.2876   54.5419 H       1  ZINC001211202056    0.1700
     31 H31        -7.0410    3.2735   54.8155 H       1  ZINC001211202056    0.1500
@<TRIPOS>BOND
     1     1     2    1
     2     1    24    1
     3     1    25    1
     4     2    22   ar
     5     2     3   ar
     6     3     4   ar
     7     3    26    1
     8     4     5   ar
     9     4    27    1
    10     5     6    1
    11     5    21   ar
    12     6     7    2
    13     6     8    2
    14     6     9   am
    15     9    10    1
    16     9    28    1
    17    10    19   ar
    18    10    11   ar
    19    11    12   ar
    20    11    29    1
    21    12    13   ar
    22    12    30    1
    23    13    14    1
    24    13    18   ar
    25    14    15    1
    26    14    16    1
    27    14    17    1
    28    18    19   ar
    29    19    20    1
    30    21    22   ar
    31    21    31    1
    32    22    23    1
@<TRIPOS>SUBSTRUCTURE
     1 ZINC001211202056        1 TEMP              0 ****  ****    0 ROOT


##########                                Name:    ZINC000154446008
##########                DOCK_Rotatable_Bonds:                   5
##########                         Heavy_Atoms:                  24
##########                    Molecular_Weight:              349.41
##########                DOCK_Rotatable_Bonds:                   5
##########                       Formal_Charge:          -0.0199999
##########                     HBond_Acceptors:                   8
##########                        HBond_Donors:                   0
##########                         Heavy_Atoms:                  24
##########                          Grid_Score:          -23.506254
##########                     Grid_vdw_energy:          -23.408115
##########                      Grid_es_energy:           -0.098139
##########           Internal_energy_repulsive:           13.375499

@<TRIPOS>MOLECULE
ZINC000154446008
 43 45 1 0 0
SMALL
USER_CHARGES


@<TRIPOS>ATOM
      1 O1         -1.1453    6.7023   53.9209 O.2     1  ZINC000154446008   -0.5000
      2 C2         -0.8802    5.5526   53.6226 C.2     1  ZINC000154446008    0.5900
      3 C3         -1.0487    4.4818   54.6093 C.2     1  ZINC000154446008   -0.2300
      4 C4         -2.2011    3.7813   54.8299 C.2     1  ZINC000154446008   -0.0600
      5 C5         -2.0794    2.8309   55.8156 C.2     1  ZINC000154446008   -0.0500
      6 C6         -0.8703    2.7541   56.3839 C.2     1  ZINC000154446008   -0.2100
      7 N7         -0.5092    1.8076   57.4633 N.pl3   1  ZINC000154446008    0.0500
      8 O8          0.5404    1.9431   58.0661 O.2     1  ZINC000154446008   -0.1300
      9 O9         -1.2617    0.8933   57.7485 O.2     1  ZINC000154446008   -0.1500
     10 S10         0.2016    3.8879   55.6935 S.3     1  ZINC000154446008    0.3500
     11 N11        -0.4368    5.2632   52.3831 N.am    1  ZINC000154446008   -0.6100
     12 C12        -0.1243    3.8778   52.0051 C.3     1  ZINC000154446008    0.0800
     13 C13        -0.9335    3.5170   50.7532 C.3     1  ZINC000154446008    0.0900
     14 N14        -0.7545    4.5810   49.7555 N.am    1  ZINC000154446008   -0.6100
     15 C15        -0.3119    4.2914   48.5157 C.2     1  ZINC000154446008    0.5500
     16 O16        -0.1675    5.1805   47.6985 O.2     1  ZINC000154446008   -0.5300
     17 C17        -0.0035    2.9001   48.1511 C.2     1  ZINC000154446008   -0.1500
     18 C18        -1.0065    2.0952   47.8741 C.2     1  ZINC000154446008   -0.1100
     19 C19        -0.8393    0.6521   47.4970 C.3     1  ZINC000154446008   -0.1000
     20 C20         0.6059    0.3829   47.0723 C.3     1  ZINC000154446008   -0.1200
     21 C21         1.5427    0.9550   48.1433 C.3     1  ZINC000154446008   -0.1200
     22 C22         1.4375    2.4825   48.1108 C.3     1  ZINC000154446008   -0.0700
     23 C23        -1.0669    5.9664   50.1335 C.3     1  ZINC000154446008    0.1000
     24 C24        -0.2630    6.3265   51.3836 C.3     1  ZINC000154446008    0.1000
     25 H25        -3.1163    3.9569   54.2841 H       1  ZINC000154446008    0.1800
     26 H26        -2.8997    2.1931   56.1102 H       1  ZINC000154446008    0.1800
     27 H27         0.9406    3.7885   51.7906 H       1  ZINC000154446008    0.0900
     28 H28        -0.3933    3.2065   52.8206 H       1  ZINC000154446008    0.0900
     29 H29        -0.5765    2.5706   50.3469 H       1  ZINC000154446008    0.1100
     30 H30        -1.9890    3.4319   51.0119 H       1  ZINC000154446008    0.0800
     31 H31        -2.0084    2.4959   47.9212 H       1  ZINC000154446008    0.1100
     32 H32        -1.0873    0.0239   48.3525 H       1  ZINC000154446008    0.0900
     33 H33        -1.5090    0.4146   46.6704 H       1  ZINC000154446008    0.0800
     34 H34         0.7667   -0.6913   46.9809 H       1  ZINC000154446008    0.0700
     35 H35         0.8030    0.8680   46.1162 H       1  ZINC000154446008    0.0700
     36 H36         1.2462    0.5850   49.1247 H       1  ZINC000154446008    0.0700
     37 H37         2.5688    0.6549   47.9304 H       1  ZINC000154446008    0.0700
     38 H38         1.9028    2.8575   47.1992 H       1  ZINC000154446008    0.0800
     39 H39         1.9545    2.8988   48.9754 H       1  ZINC000154446008    0.0700
     40 H40        -0.7980    6.6377   49.3179 H       1  ZINC000154446008    0.1100
     41 H41        -2.1319    6.0558   50.3480 H       1  ZINC000154446008    0.0800
     42 H42        -0.6210    7.2729   51.7888 H       1  ZINC000154446008    0.1100
     43 H43         0.7930    6.4115   51.1275 H       1  ZINC000154446008    0.0800
@<TRIPOS>BOND
     1     1     2    2
     2     2     3    1
     3     2    11   am
     4     3    10    1
     5     3     4    2
     6     4     5    1
     7     4    25    1
     8     5     6    2
     9     5    26    1
    10     6     7    1
    11     6    10    1
    12     7     8    2
    13     7     9    2
    14    11    24    1
    15    11    12    1
    16    12    13    1
    17    12    27    1
    18    12    28    1
    19    13    14    1
    20    13    29    1
    21    13    30    1
    22    14    15   am
    23    14    23    1
    24    15    16    2
    25    15    17    1
    26    17    22    1
    27    17    18    2
    28    18    19    1
    29    18    31    1
    30    19    20    1
    31    19    32    1
    32    19    33    1
    33    20    21    1
    34    20    34    1
    35    20    35    1
    36    21    22    1
    37    21    36    1
    38    21    37    1
    39    22    38    1
    40    22    39    1
    41    23    24    1
    42    23    40    1
    43    23    41    1
    44    24    42    1
    45    24    43    1
@<TRIPOS>SUBSTRUCTURE
     1 ZINC000154446008        1 TEMP              0 ****  ****    0 ROOT


##########                                Name:    ZINC001231746020
##########                DOCK_Rotatable_Bonds:                   3
##########                         Heavy_Atoms:                  19
##########                    Molecular_Weight:             348.667
##########                DOCK_Rotatable_Bonds:                   3
##########                       Formal_Charge:          -0.0399997
##########                     HBond_Acceptors:                   4
##########                        HBond_Donors:                   2
##########                         Heavy_Atoms:                  19
##########                          Grid_Score:          -23.368937
##########                     Grid_vdw_energy:          -22.785158
##########                      Grid_es_energy:           -0.583779
##########           Internal_energy_repulsive:           10.333527

@<TRIPOS>MOLECULE
ZINC001231746020
 38 39 1 0 0
SMALL
USER_CHARGES


@<TRIPOS>ATOM
      1 C1        -13.1440   -0.1129   52.2188 C.3     1  ZINC001231746020   -0.1500
      2 C2        -12.5043   -1.1328   53.1629 C.3     1  ZINC001231746020   -0.0900
      3 H3        -12.2678   -0.6531   54.1128 H       1  ZINC001231746020    0.0800
      4 C4        -13.4599   -2.2720   53.3972 C.3     1  ZINC001231746020   -0.1400
      5 C5        -13.3266   -2.9082   54.7926 C.3     1  ZINC001231746020   -0.0100
      6 N6        -11.9252   -3.0987   55.2239 N.4     1  ZINC001231746020   -0.3800
      7 H7        -11.5587   -2.2164   55.5486 H       1  ZINC001231746020    0.4100
      8 C8        -11.8924   -4.0654   56.3294 C.3     1  ZINC001231746020    0.0700
      9 C9        -12.2901   -3.3777   57.6101 C.ar    1  ZINC001231746020   -0.3100
     10 C10       -11.3348   -2.7295   58.3705 C.ar    1  ZINC001231746020   -0.0300
     11 C11       -11.6970   -2.0974   59.5458 C.ar    1  ZINC001231746020   -0.1600
     12 Cl12      -10.4968   -1.2837   60.5002 Cl      1  ZINC001231746020   -0.0800
     13 C13       -13.0209   -2.1145   59.9617 C.ar    1  ZINC001231746020    0.3100
     14 O14       -13.3799   -1.4934   61.1165 O.3     1  ZINC001231746020   -0.6300
     15 C15       -13.9776   -2.7664   59.1964 C.ar    1  ZINC001231746020   -0.2100
     16 Br16      -15.7828   -2.7925   59.7591 Br      1  ZINC001231746020   -0.0600
     17 C17       -13.6109   -3.3914   58.0194 C.ar    1  ZINC001231746020   -0.0200
     18 C18       -11.0924   -3.5846   54.1505 C.3     1  ZINC001231746020   -0.0200
     19 C19       -10.3880   -2.3748   53.5151 C.3     1  ZINC001231746020   -0.1800
     20 C20       -11.2082   -1.6906   52.5231 C.3     1  ZINC001231746020    0.1000
     21 H21       -10.6378   -0.8669   52.0938 H       1  ZINC001231746020    0.0700
     22 O22       -11.5551   -2.6104   51.4860 O.3     1  ZINC001231746020   -0.5600
     23 H23       -14.0617    0.2700   52.6655 H       1  ZINC001231746020    0.0600
     24 H24       -13.3755   -0.5931   51.2681 H       1  ZINC001231746020    0.0700
     25 H25       -12.4507    0.7112   52.0503 H       1  ZINC001231746020    0.0600
     26 H26       -14.4786   -1.9033   53.2777 H       1  ZINC001231746020    0.1000
     27 H27       -13.2775   -3.0408   52.6463 H       1  ZINC001231746020    0.1000
     28 H28       -13.8307   -2.2687   55.5171 H       1  ZINC001231746020    0.1200
     29 H29       -13.8234   -3.8783   54.7826 H       1  ZINC001231746020    0.1200
     30 H30       -12.5885   -4.8782   56.1222 H       1  ZINC001231746020    0.1200
     31 H31       -10.8843   -4.4674   56.4308 H       1  ZINC001231746020    0.1200
     32 H32       -10.3047   -2.7167   58.0462 H       1  ZINC001231746020    0.1100
     33 H33       -14.3559   -3.8945   57.4208 H       1  ZINC001231746020    0.1100
     34 H34       -10.3501   -4.2786   54.5447 H       1  ZINC001231746020    0.1400
     35 H35       -11.7081   -4.0875   53.4047 H       1  ZINC001231746020    0.1300
     36 H36       -10.1277   -1.6676   54.3026 H       1  ZINC001231746020    0.0900
     37 H37        -9.4712   -2.7158   53.0343 H       1  ZINC001231746020    0.1100
     38 H38       -12.1734   -2.2531   50.8340 H       1  ZINC001231746020    0.3900
@<TRIPOS>BOND
     1     1     2    1
     2     1    23    1
     3     1    24    1
     4     1    25    1
     5     2     3    1
     6     2    20    1
     7     2     4    1
     8     4     5    1
     9     4    26    1
    10     4    27    1
    11     5     6    1
    12     5    28    1
    13     5    29    1
    14     6     7    1
    15     6     8    1
    16     6    18    1
    17     8     9    1
    18     8    30    1
    19     8    31    1
    20     9    17   ar
    21     9    10   ar
    22    10    11   ar
    23    10    32    1
    24    11    12    1
    25    11    13   ar
    26    13    14    1
    27    13    15   ar
    28    15    16    1
    29    15    17   ar
    30    17    33    1
    31    18    19    1
    32    18    34    1
    33    18    35    1
    34    19    20    1
    35    19    36    1
    36    19    37    1
    37    20    21    1
    38    20    22    1
    39    22    38    1
@<TRIPOS>SUBSTRUCTURE
     1 ZINC001231746020        1 TEMP              0 ****  ****    0 ROOT


##########                                Name:    ZINC000879023512
##########                DOCK_Rotatable_Bonds:                   4
##########                         Heavy_Atoms:                  20
##########                    Molecular_Weight:             346.156
##########                DOCK_Rotatable_Bonds:                   4
##########                       Formal_Charge:        -5.96046e-08
##########                     HBond_Acceptors:                   7
##########                        HBond_Donors:                   1
##########                         Heavy_Atoms:                  20
##########                          Grid_Score:          -23.031984
##########                     Grid_vdw_energy:          -20.839851
##########                      Grid_es_energy:           -2.192133
##########           Internal_energy_repulsive:            4.617107

@<TRIPOS>MOLECULE
ZINC000879023512
 33 34 1 0 0
SMALL
USER_CHARGES


@<TRIPOS>ATOM
      1 O1         -1.7940    4.4359   50.5120 O.2     1  ZINC000879023512   -0.5600
      2 C2         -2.2069    3.6664   51.3581 C.2     1  ZINC000879023512    0.7200
      3 N3         -1.8609    2.3646   51.3114 N.am    1  ZINC000879023512   -0.6800
      4 C4         -1.0309    1.8975   50.2856 C.ar    1  ZINC000879023512    0.1800
      5 C5         -1.4627    1.9425   48.9668 C.ar    1  ZINC000879023512   -0.0900
      6 C6         -0.6417    1.4808   47.9563 C.ar    1  ZINC000879023512   -0.0700
      7 C7          0.6096    0.9735   48.2575 C.ar    1  ZINC000879023512   -0.0700
      8 Br8         1.7308    0.3425   46.8718 Br      1  ZINC000879023512    0.0200
      9 C9          1.0424    0.9276   49.5712 C.ar    1  ZINC000879023512    0.0000
     10 N10         2.3819    0.3842   49.8897 N.pl3   1  ZINC000879023512    0.0200
     11 O11         2.7634    0.3435   51.0456 O.2     1  ZINC000879023512   -0.1500
     12 O12         3.1026   -0.0223   48.9959 O.2     1  ZINC000879023512   -0.1300
     13 C13         0.2282    1.3935   50.5845 C.ar    1  ZINC000879023512   -0.0500
     14 N14        -3.0061    4.1163   52.3457 N.am    1  ZINC000879023512   -0.6300
     15 C15        -3.4645    5.5033   52.5123 C.3     1  ZINC000879023512    0.0900
     16 C16        -4.3319    5.5492   53.7877 C.3     1  ZINC000879023512   -0.1200
     17 C17        -3.8504    4.3052   54.5804 C.3     1  ZINC000879023512   -0.1400
     18 H18        -2.9421    4.5266   55.1409 H       1  ZINC000879023512    0.1000
     19 C19        -4.9509    3.7862   55.5079 C.3     1  ZINC000879023512    0.0700
     20 F20        -6.0722    3.4331   54.7494 F       1  ZINC000879023512   -0.2100
     21 C21        -3.5706    3.2980   53.4342 C.3     1  ZINC000879023512    0.1300
     22 H22        -2.1870    1.7516   51.9886 H       1  ZINC000879023512    0.4200
     23 H23        -2.4398    2.3377   48.7312 H       1  ZINC000879023512    0.1600
     24 H24        -0.9771    1.5156   46.9303 H       1  ZINC000879023512    0.1600
     25 H25         0.5667    1.3577   51.6094 H       1  ZINC000879023512    0.1800
     26 H26        -2.6066    6.1665   52.6234 H       1  ZINC000879023512    0.0700
     27 H27        -4.0584    5.8036   51.6490 H       1  ZINC000879023512    0.0700
     28 H28        -4.1415    6.4627   54.3510 H       1  ZINC000879023512    0.0900
     29 H29        -5.3894    5.4619   53.5384 H       1  ZINC000879023512    0.0900
     30 H30        -4.5880    2.9119   56.0484 H       1  ZINC000879023512    0.0800
     31 H31        -5.2241    4.5655   56.2193 H       1  ZINC000879023512    0.0800
     32 H32        -4.4966    2.8195   53.1152 H       1  ZINC000879023512    0.0800
     33 H33        -2.8468    2.5490   53.7557 H       1  ZINC000879023512    0.0900
@<TRIPOS>BOND
     1     1     2    2
     2     2     3   am
     3     2    14   am
     4     3     4    1
     5     3    22    1
     6     4    13   ar
     7     4     5   ar
     8     5     6   ar
     9     5    23    1
    10     6     7   ar
    11     6    24    1
    12     7     8    1
    13     7     9   ar
    14     9    10    1
    15     9    13   ar
    16    10    11    2
    17    10    12    2
    18    13    25    1
    19    14    21    1
    20    14    15    1
    21    15    16    1
    22    15    26    1
    23    15    27    1
    24    16    17    1
    25    16    28    1
    26    16    29    1
    27    17    18    1
    28    17    19    1
    29    17    21    1
    30    19    20    1
    31    19    30    1
    32    19    31    1
    33    21    32    1
    34    21    33    1
@<TRIPOS>SUBSTRUCTURE
     1 ZINC000879023512        1 TEMP              0 ****  ****    0 ROOT


##########                                Name:    ZINC000931749147
##########                DOCK_Rotatable_Bonds:                   5
##########                         Heavy_Atoms:                  25
##########                    Molecular_Weight:             354.397
##########                DOCK_Rotatable_Bonds:                   5
##########                       Formal_Charge:        -4.76837e-07
##########                     HBond_Acceptors:                   7
##########                        HBond_Donors:                   1
##########                         Heavy_Atoms:                  25
##########                          Grid_Score:          -22.976824
##########                     Grid_vdw_energy:          -23.137218
##########                      Grid_es_energy:            0.160395
##########           Internal_energy_repulsive:           83.152870

@<TRIPOS>MOLECULE
ZINC000931749147
 49 51 1 0 0
SMALL
USER_CHARGES


@<TRIPOS>ATOM
      1 C1         -8.4873    1.5171   55.1159 C.3     1  ZINC000931749147   -0.1100
      2 C2         -7.8197    1.1082   53.8282 C.ar    1  ZINC000931749147   -0.1300
      3 C3         -8.2881    0.0093   53.1213 C.ar    1  ZINC000931749147    0.1800
      4 N4         -9.3818   -0.7204   53.6039 N.am    1  ZINC000931749147   -0.6800
      5 C5        -10.5671   -0.6596   52.9653 C.2     1  ZINC000931749147    0.7100
      6 O6        -10.6870    0.0288   51.9702 O.2     1  ZINC000931749147   -0.5500
      7 N7        -11.6195   -1.3618   53.4297 N.am    1  ZINC000931749147   -0.6200
      8 C8        -11.4987   -2.2017   54.6319 C.3     1  ZINC000931749147    0.0700
      9 C9        -12.0475   -3.5953   54.3052 C.3     1  ZINC000931749147    0.0500
     10 O10       -13.3585   -3.4666   53.7498 O.3     1  ZINC000931749147   -0.3700
     11 C11       -13.4029   -2.7476   52.5149 C.3     1  ZINC000931749147    0.0500
     12 C12       -12.9252   -1.3063   52.7532 C.3     1  ZINC000931749147    0.1300
     13 H13       -13.6463   -0.7790   53.3776 H       1  ZINC000931749147    0.0900
     14 C14       -12.7790   -0.5836   51.4125 C.3     1  ZINC000931749147   -0.1100
     15 C15       -14.0808   -0.7127   50.6190 C.3     1  ZINC000931749147   -0.1000
     16 C16       -15.2221   -0.0487   51.3954 C.3     1  ZINC000931749147   -0.1500
     17 C17       -16.5029   -0.1132   50.5593 C.3     1  ZINC000931749147    0.0600
     18 O18       -16.2812    0.5261   49.3005 O.3     1  ZINC000931749147   -0.3800
     19 C19       -15.2570   -0.0809   48.5102 C.3     1  ZINC000931749147    0.0600
     20 C20       -13.9262   -0.0151   49.2640 C.3     1  ZINC000931749147   -0.1500
     21 C21        -7.6714   -0.3656   51.9350 C.ar    1  ZINC000931749147   -0.1200
     22 C22        -6.5931    0.3549   51.4594 C.ar    1  ZINC000931749147   -0.1100
     23 C23        -6.1260    1.4508   52.1643 C.ar    1  ZINC000931749147    0.0500
     24 F24        -5.0712    2.1541   51.6973 F       1  ZINC000931749147   -0.1300
     25 C25        -6.7433    1.8312   53.3464 C.ar    1  ZINC000931749147    0.0900
     26 F26        -6.2863    2.9010   54.0332 F       1  ZINC000931749147   -0.1200
     27 H27        -9.2904    2.2219   54.9010 H       1  ZINC000931749147    0.0800
     28 H28        -8.8991    0.6357   55.6074 H       1  ZINC000931749147    0.0700
     29 H29        -7.7549    1.9893   55.7708 H       1  ZINC000931749147    0.0800
     30 H30        -9.2862   -1.2696   54.3978 H       1  ZINC000931749147    0.4100
     31 H31       -10.4509   -2.2785   54.9222 H       1  ZINC000931749147    0.0800
     32 H32       -12.0745   -1.7621   55.4463 H       1  ZINC000931749147    0.0900
     33 H33       -11.3928   -4.0844   53.5839 H       1  ZINC000931749147    0.0600
     34 H34       -12.0951   -4.1907   55.2169 H       1  ZINC000931749147    0.1100
     35 H35       -12.7533   -3.2337   51.7870 H       1  ZINC000931749147    0.0600
     36 H36       -14.4258   -2.7333   52.1386 H       1  ZINC000931749147    0.1100
     37 H37       -12.5642    0.4703   51.5894 H       1  ZINC000931749147    0.1100
     38 H38       -11.9622   -1.0307   50.8459 H       1  ZINC000931749147    0.0700
     39 H39       -14.3094   -1.7669   50.4624 H       1  ZINC000931749147    0.0700
     40 H40       -15.3755   -0.5742   52.3378 H       1  ZINC000931749147    0.0700
     41 H41       -14.9694    0.9927   51.5949 H       1  ZINC000931749147    0.0700
     42 H42       -16.7773   -1.1552   50.3943 H       1  ZINC000931749147    0.0500
     43 H43       -17.3086    0.3957   51.0885 H       1  ZINC000931749147    0.0900
     44 H44       -15.5151   -1.1225   48.3186 H       1  ZINC000931749147    0.0500
     45 H45       -15.1652    0.4511   47.5633 H       1  ZINC000931749147    0.0900
     46 H46       -13.6473    1.0270   49.4205 H       1  ZINC000931749147    0.0700
     47 H47       -13.1528   -0.5167   48.6822 H       1  ZINC000931749147    0.0700
     48 H48        -8.0347   -1.2207   51.3843 H       1  ZINC000931749147    0.1800
     49 H49        -6.1137    0.0627   50.5368 H       1  ZINC000931749147    0.1500
@<TRIPOS>BOND
     1     1     2    1
     2     1    27    1
     3     1    28    1
     4     1    29    1
     5     2    25   ar
     6     2     3   ar
     7     3     4    1
     8     3    21   ar
     9     4     5   am
    10     4    30    1
    11     5     6    2
    12     5     7   am
    13     7    12    1
    14     7     8    1
    15     8     9    1
    16     8    31    1
    17     8    32    1
    18     9    10    1
    19     9    33    1
    20     9    34    1
    21    10    11    1
    22    11    12    1
    23    11    35    1
    24    11    36    1
    25    12    13    1
    26    12    14    1
    27    14    15    1
    28    14    37    1
    29    14    38    1
    30    15    20    1
    31    15    16    1
    32    15    39    1
    33    16    17    1
    34    16    40    1
    35    16    41    1
    36    17    18    1
    37    17    42    1
    38    17    43    1
    39    18    19    1
    40    19    20    1
    41    19    44    1
    42    19    45    1
    43    20    46    1
    44    20    47    1
    45    21    22   ar
    46    21    48    1
    47    22    23   ar
    48    22    49    1
    49    23    24    1
    50    23    25   ar
    51    25    26    1
@<TRIPOS>SUBSTRUCTURE
     1 ZINC000931749147        1 TEMP              0 ****  ****    0 ROOT


##########                                Name:    ZINC000820901229
##########                DOCK_Rotatable_Bonds:                   3
##########                         Heavy_Atoms:                  18
##########                    Molecular_Weight:             331.233
##########                DOCK_Rotatable_Bonds:                   3
##########                       Formal_Charge:           0.0099999
##########                     HBond_Acceptors:                   5
##########                        HBond_Donors:                   1
##########                         Heavy_Atoms:                  18
##########                          Grid_Score:          -22.764357
##########                     Grid_vdw_energy:          -22.550468
##########                      Grid_es_energy:           -0.213888
##########           Internal_energy_repulsive:           19.221762

@<TRIPOS>MOLECULE
ZINC000820901229
 33 35 1 0 0
SMALL
USER_CHARGES


@<TRIPOS>ATOM
      1 O1        -11.2929   -2.9647   53.2192 O.2     1  ZINC000820901229   -0.5300
      2 C2        -11.1056   -1.8953   53.7675 C.2     1  ZINC000820901229    0.6000
      3 N3        -11.8269   -1.5604   54.8556 N.am    1  ZINC000820901229   -0.7100
      4 C4        -12.8406   -2.4820   55.3746 C.3     1  ZINC000820901229    0.1600
      5 H5        -13.3438   -2.0348   56.2319 H       1  ZINC000820901229    0.1000
      6 C6        -12.1800   -3.8068   55.7885 C.3     1  ZINC000820901229   -0.1300
      7 C7        -13.2132   -4.8181   56.2758 C.3     1  ZINC000820901229   -0.1100
      8 C8        -14.3169   -5.0416   55.2288 C.3     1  ZINC000820901229   -0.1100
      9 C9        -14.9455   -3.6939   54.9406 C.3     1  ZINC000820901229    0.0800
     10 H10       -15.2823   -3.2392   55.8723 H       1  ZINC000820901229    0.0700
     11 O11       -15.9930   -3.6469   53.9784 O.3     1  ZINC000820901229   -0.3700
     12 C12       -16.0935   -2.2525   53.5923 C.3     1  ZINC000820901229    0.0500
     13 C13       -14.6954   -1.6178   53.8089 C.3     1  ZINC000820901229   -0.1500
     14 C14       -13.8535   -2.8005   54.2891 C.3     1  ZINC000820901229   -0.1400
     15 H15       -13.3794   -3.3060   53.4478 H       1  ZINC000820901229    0.0900
     16 C16       -10.0867   -0.9689   53.2459 C.2     1  ZINC000820901229    0.0100
     17 C17       -10.2251    0.3754   53.2770 C.2     1  ZINC000820901229   -0.2200
     18 S18        -8.8369    1.0899   52.5812 S.3     1  ZINC000820901229    0.3100
     19 C19        -8.1510   -0.4464   52.2885 C.2     1  ZINC000820901229   -0.0100
     20 Br20       -6.4680   -0.7378   51.4769 Br      1  ZINC000820901229    0.0700
     21 N21        -8.9365   -1.3785   52.7029 N.2     1  ZINC000820901229   -0.4100
     22 H22       -11.6747   -0.7092   55.2953 H       1  ZINC000820901229    0.4100
     23 H23       -11.6502   -4.2235   54.9319 H       1  ZINC000820901229    0.0700
     24 H24       -11.4653   -3.6139   56.5885 H       1  ZINC000820901229    0.0700
     25 H25       -12.7159   -5.7668   56.4776 H       1  ZINC000820901229    0.0800
     26 H26       -13.6649   -4.4506   57.1971 H       1  ZINC000820901229    0.0700
     27 H27       -13.8844   -5.4516   54.3160 H       1  ZINC000820901229    0.0700
     28 H28       -15.0691   -5.7248   55.6231 H       1  ZINC000820901229    0.0800
     29 H29       -16.3766   -2.1775   52.5424 H       1  ZINC000820901229    0.0900
     30 H30       -16.8313   -1.7470   54.2154 H       1  ZINC000820901229    0.0600
     31 H31       -14.3020   -1.2234   52.8720 H       1  ZINC000820901229    0.0800
     32 H32       -14.7402   -0.8369   54.5681 H       1  ZINC000820901229    0.0800
     33 H33       -11.0743    0.9104   53.6757 H       1  ZINC000820901229    0.2000
@<TRIPOS>BOND
     1     1     2    2
     2     2     3   am
     3     2    16    1
     4     3     4    1
     5     3    22    1
     6     4     5    1
     7     4    14    1
     8     4     6    1
     9     6     7    1
    10     6    23    1
    11     6    24    1
    12     7     8    1
    13     7    25    1
    14     7    26    1
    15     8     9    1
    16     8    27    1
    17     8    28    1
    18     9    10    1
    19     9    14    1
    20     9    11    1
    21    11    12    1
    22    12    13    1
    23    12    29    1
    24    12    30    1
    25    13    14    1
    26    13    31    1
    27    13    32    1
    28    14    15    1
    29    16    21    1
    30    16    17    2
    31    17    18    1
    32    17    33    1
    33    18    19    1
    34    19    20    1
    35    19    21    2
@<TRIPOS>SUBSTRUCTURE
     1 ZINC000820901229        1 TEMP              0 ****  ****    0 ROOT


##########                                Name:    ZINC000482962466
##########                DOCK_Rotatable_Bonds:                   2
##########                         Heavy_Atoms:                  25
##########                    Molecular_Weight:             404.303
##########                DOCK_Rotatable_Bonds:                   2
##########                       Formal_Charge:           0.0200002
##########                     HBond_Acceptors:                   4
##########                        HBond_Donors:                   0
##########                         Heavy_Atoms:                  25
##########                          Grid_Score:          -22.721361
##########                     Grid_vdw_energy:          -22.483576
##########                      Grid_es_energy:           -0.237785
##########           Internal_energy_repulsive:            7.692611

@<TRIPOS>MOLECULE
ZINC000482962466
 47 50 1 0 0
SMALL
USER_CHARGES


@<TRIPOS>ATOM
      1 C1        -16.0519   -2.8972   59.0193 C.3     1  ZINC000482962466   -0.1400
      2 C2        -14.8901   -2.2017   58.3070 C.3     1  ZINC000482962466    0.0700
      3 H3        -14.9767   -1.1229   58.4370 H       1  ZINC000482962466    0.0700
      4 C4        -14.9279   -2.5421   56.8128 C.3     1  ZINC000482962466    0.0800
      5 N5        -13.7038   -2.0194   56.1856 N.am    1  ZINC000482962466   -0.6100
      6 C6        -13.7635   -1.2595   55.0740 C.2     1  ZINC000482962466    0.5600
      7 O7        -14.8403   -0.9967   54.5747 O.2     1  ZINC000482962466   -0.5200
      8 C8        -12.5204   -0.7461   54.4623 C.ar    1  ZINC000482962466   -0.1100
      9 C9        -12.2724    0.6379   54.4425 C.ar    1  ZINC000482962466   -0.0700
     10 C10       -11.1378    1.1339   53.8865 C.ar    1  ZINC000482962466   -0.1000
     11 C11       -10.1915    0.2604   53.3201 C.ar    1  ZINC000482962466   -0.0400
     12 C12        -9.0102    0.7502   52.7392 C.ar    1  ZINC000482962466   -0.0700
     13 C13        -8.1121   -0.1201   52.1988 C.ar    1  ZINC000482962466   -0.0800
     14 Br14       -6.5235    0.5458   51.4188 Br      1  ZINC000482962466   -0.0400
     15 C15        -8.3466   -1.4949   52.2126 C.ar    1  ZINC000482962466   -0.1000
     16 C16        -9.4797   -2.0058   52.7661 C.ar    1  ZINC000482962466   -0.0900
     17 C17       -10.4299   -1.1378   53.3342 C.ar    1  ZINC000482962466   -0.0500
     18 C18       -11.6053   -1.6323   53.9178 C.ar    1  ZINC000482962466   -0.0700
     19 C19       -12.4121   -2.3514   56.8080 C.3     1  ZINC000482962466    0.0700
     20 C20       -12.4973   -2.0231   58.3018 C.3     1  ZINC000482962466    0.0800
     21 C21       -11.2405   -2.5357   59.0095 C.3     1  ZINC000482962466   -0.1100
     22 C22       -11.2990   -2.1320   60.4862 C.3     1  ZINC000482962466   -0.1500
     23 C23       -11.4457   -0.6113   60.5857 C.3     1  ZINC000482962466    0.0600
     24 O24       -12.6188   -0.1992   59.8814 O.3     1  ZINC000482962466   -0.3700
     25 C25       -12.5997   -0.5076   58.4860 C.3     1  ZINC000482962466    0.0400
     26 O26       -13.6516   -2.6517   58.8619 O.3     1  ZINC000482962466   -0.3500
     27 H27       -16.0232   -2.6562   60.0819 H       1  ZINC000482962466    0.0700
     28 H28       -16.9957   -2.5551   58.5945 H       1  ZINC000482962466    0.0800
     29 H29       -15.9646   -3.9758   58.8889 H       1  ZINC000482962466    0.0700
     30 H30       -14.9734   -3.6235   56.6838 H       1  ZINC000482962466    0.0800
     31 H31       -15.8018   -2.0802   56.3532 H       1  ZINC000482962466    0.1000
     32 H32       -12.9943    1.3151   54.8749 H       1  ZINC000482962466    0.1400
     33 H33       -10.9616    2.1994   53.8785 H       1  ZINC000482962466    0.1400
     34 H34        -8.8148    1.8122   52.7206 H       1  ZINC000482962466    0.1400
     35 H35        -7.6185   -2.1634   51.7775 H       1  ZINC000482962466    0.1400
     36 H36        -9.6486   -3.0724   52.7693 H       1  ZINC000482962466    0.1400
     37 H37       -11.7976   -2.6949   53.9387 H       1  ZINC000482962466    0.1400
     38 H38       -12.2033   -3.4132   56.6766 H       1  ZINC000482962466    0.0900
     39 H39       -11.6199   -1.7613   56.3469 H       1  ZINC000482962466    0.1000
     40 H40       -11.1945   -3.6218   58.9300 H       1  ZINC000482962466    0.0800
     41 H41       -10.3567   -2.0970   58.5463 H       1  ZINC000482962466    0.0800
     42 H42       -12.1542   -2.6123   60.9615 H       1  ZINC000482962466    0.0800
     43 H43       -10.3814   -2.4428   60.9856 H       1  ZINC000482962466    0.0800
     44 H44       -11.5305   -0.3222   61.6332 H       1  ZINC000482962466    0.1000
     45 H45       -10.5709   -0.1323   60.1461 H       1  ZINC000482962466    0.0500
     46 H46       -11.7409   -0.0259   58.0188 H       1  ZINC000482962466    0.0600
     47 H47       -13.5170   -0.1461   58.0212 H       1  ZINC000482962466    0.1000
@<TRIPOS>BOND
     1     1     2    1
     2     1    27    1
     3     1    28    1
     4     1    29    1
     5     2     3    1
     6     2    26    1
     7     2     4    1
     8     4     5    1
     9     4    30    1
    10     4    31    1
    11     5     6   am
    12     5    19    1
    13     6     7    2
    14     6     8    1
    15     8    18   ar
    16     8     9   ar
    17     9    10   ar
    18     9    32    1
    19    10    11   ar
    20    10    33    1
    21    11    17   ar
    22    11    12   ar
    23    12    13   ar
    24    12    34    1
    25    13    14    1
    26    13    15   ar
    27    15    16   ar
    28    15    35    1
    29    16    17   ar
    30    16    36    1
    31    17    18   ar
    32    18    37    1
    33    19    20    1
    34    19    38    1
    35    19    39    1
    36    20    25    1
    37    20    21    1
    38    20    26    1
    39    21    22    1
    40    21    40    1
    41    21    41    1
    42    22    23    1
    43    22    42    1
    44    22    43    1
    45    23    24    1
    46    23    44    1
    47    23    45    1
    48    24    25    1
    49    25    46    1
    50    25    47    1
@<TRIPOS>SUBSTRUCTURE
     1 ZINC000482962466        1 TEMP              0 ****  ****    0 ROOT


##########                                Name:    ZINC000431691749
##########                DOCK_Rotatable_Bonds:                   4
##########                         Heavy_Atoms:                  24
##########                    Molecular_Weight:             328.454
##########                DOCK_Rotatable_Bonds:                   4
##########                       Formal_Charge:         -0.00999957
##########                     HBond_Acceptors:                   4
##########                        HBond_Donors:                   0
##########                         Heavy_Atoms:                  24
##########                          Grid_Score:          -22.247196
##########                     Grid_vdw_energy:          -21.436430
##########                      Grid_es_energy:           -0.810766
##########           Internal_energy_repulsive:          130.010361

@<TRIPOS>MOLECULE
ZINC000431691749
 52 54 1 0 0
SMALL
USER_CHARGES


@<TRIPOS>ATOM
      1 C1        -13.1279    0.2957   52.4037 C.3     1  ZINC000431691749   -0.1200
      2 C2        -12.3776   -0.9169   52.8912 C.ar    1  ZINC000431691749   -0.0800
      3 C3        -11.6963   -1.7157   51.9923 C.ar    1  ZINC000431691749   -0.1200
      4 C4        -11.0079   -2.8281   52.4395 C.ar    1  ZINC000431691749   -0.1100
      5 C5        -11.0005   -3.1411   53.7858 C.ar    1  ZINC000431691749   -0.1100
      6 C6        -11.6812   -2.3416   54.6852 C.ar    1  ZINC000431691749   -0.0800
      7 C7        -11.6734   -2.6831   56.1530 C.3     1  ZINC000431691749    0.2000
      8 H8        -11.1245   -3.6121   56.3069 H       1  ZINC000431691749    0.1100
      9 N9        -11.0260   -1.6034   56.9020 N.am    1  ZINC000431691749   -0.5700
     10 C10       -10.9391   -1.5609   58.2463 C.2     1  ZINC000431691749    0.5200
     11 O11       -11.3658   -2.3779   59.0338 O.2     1  ZINC000431691749   -0.4400
     12 C12       -10.1960   -0.2796   58.5686 C.3     1  ZINC000431691749    0.0900
     13 H13       -10.8212    0.3873   59.1623 H       1  ZINC000431691749    0.1300
     14 C14        -8.8891   -0.5855   59.3032 C.3     1  ZINC000431691749   -0.1500
     15 N15        -9.9250    0.3060   57.2443 N.am    1  ZINC000431691749   -0.6000
     16 C16        -9.2233    1.5623   56.9697 C.3     1  ZINC000431691749    0.1500
     17 C17        -9.9838    2.4967   56.0140 C.3     1  ZINC000431691749   -0.1600
     18 C18       -10.6650    3.0875   57.2597 C.3     1  ZINC000431691749   -0.1400
     19 C19        -9.4295    2.6328   58.0543 C.3     1  ZINC000431691749   -0.1500
     20 C20       -10.4428   -0.5406   56.3361 C.2     1  ZINC000431691749    0.7000
     21 O21       -10.3929   -0.3569   55.1357 O.2     1  ZINC000431691749   -0.5300
     22 C22       -13.1122   -2.8535   56.6446 C.3     1  ZINC000431691749   -0.0700
     23 C23       -13.6064   -1.5348   57.2426 C.3     1  ZINC000431691749   -0.1400
     24 C24       -14.0092   -3.2486   55.4698 C.3     1  ZINC000431691749   -0.1400
     25 C25       -13.1599   -3.9476   57.7131 C.3     1  ZINC000431691749   -0.1600
     26 C26       -12.3658   -1.2271   54.2385 C.ar    1  ZINC000431691749   -0.1100
     27 H27       -12.4646    1.1605   52.4107 H       1  ZINC000431691749    0.0700
     28 H28       -13.4839    0.1188   51.3887 H       1  ZINC000431691749    0.0700
     29 H29       -13.9781    0.4846   53.0592 H       1  ZINC000431691749    0.0700
     30 H30       -11.7021   -1.4711   50.9403 H       1  ZINC000431691749    0.1200
     31 H31       -10.4762   -3.4527   51.7370 H       1  ZINC000431691749    0.1200
     32 H32       -10.4632   -4.0105   54.1351 H       1  ZINC000431691749    0.1100
     33 H33        -8.2676   -1.2329   58.6846 H       1  ZINC000431691749    0.0700
     34 H34        -8.3581    0.3453   59.5028 H       1  ZINC000431691749    0.0800
     35 H35        -9.1107   -1.0866   60.2454 H       1  ZINC000431691749    0.0800
     36 H36        -8.1786    1.4127   56.6969 H       1  ZINC000431691749    0.1000
     37 H37        -9.3404    3.2043   55.4913 H       1  ZINC000431691749    0.0900
     38 H38       -10.6702    1.9746   55.3473 H       1  ZINC000431691749    0.0700
     39 H39       -10.7845    4.1701   57.2199 H       1  ZINC000431691749    0.0700
     40 H40       -11.5813    2.5697   57.5432 H       1  ZINC000431691749    0.0800
     41 H41        -9.6681    2.2207   59.0348 H       1  ZINC000431691749    0.1000
     42 H42        -8.6344    3.3777   58.0894 H       1  ZINC000431691749    0.0900
     43 H43       -13.5724   -0.7554   56.4814 H       1  ZINC000431691749    0.0600
     44 H44       -14.6314   -1.6561   57.5927 H       1  ZINC000431691749    0.0600
     45 H45       -12.9674   -1.2533   58.0796 H       1  ZINC000431691749    0.0600
     46 H46       -13.6571   -4.1881   55.0437 H       1  ZINC000431691749    0.0500
     47 H47       -15.0342   -3.3700   55.8199 H       1  ZINC000431691749    0.0600
     48 H48       -13.9752   -2.4692   54.7086 H       1  ZINC000431691749    0.0500
     49 H49       -12.1816   -4.0373   58.1851 H       1  ZINC000431691749    0.0700
     50 H50       -13.9041   -3.6880   58.4659 H       1  ZINC000431691749    0.0400
     51 H51       -13.4280   -4.8969   57.2493 H       1  ZINC000431691749    0.1000
     52 H52       -12.8975   -0.6025   54.9411 H       1  ZINC000431691749    0.1300
@<TRIPOS>BOND
     1     1     2    1
     2     1    27    1
     3     1    28    1
     4     1    29    1
     5     2    26   ar
     6     2     3   ar
     7     3     4   ar
     8     3    30    1
     9     4     5   ar
    10     4    31    1
    11     5     6   ar
    12     5    32    1
    13     6     7    1
    14     6    26   ar
    15     7     8    1
    16     7     9    1
    17     7    22    1
    18     9    20   am
    19     9    10   am
    20    10    11    2
    21    10    12    1
    22    12    13    1
    23    12    14    1
    24    12    15    1
    25    14    33    1
    26    14    34    1
    27    14    35    1
    28    15    16    1
    29    15    20   am
    30    16    19    1
    31    16    17    1
    32    16    36    1
    33    17    18    1
    34    17    37    1
    35    17    38    1
    36    18    19    1
    37    18    39    1
    38    18    40    1
    39    19    41    1
    40    19    42    1
    41    20    21    2
    42    22    23    1
    43    22    24    1
    44    22    25    1
    45    23    43    1
    46    23    44    1
    47    23    45    1
    48    24    46    1
    49    24    47    1
    50    24    48    1
    51    25    49    1
    52    25    50    1
    53    25    51    1
    54    26    52    1
@<TRIPOS>SUBSTRUCTURE
     1 ZINC000431691749        1 TEMP              0 ****  ****    0 ROOT


##########                                Name:    ZINC000550782577
##########                DOCK_Rotatable_Bonds:                   5
##########                         Heavy_Atoms:                  25
##########                    Molecular_Weight:              338.45
##########                DOCK_Rotatable_Bonds:                   5
##########                       Formal_Charge:         -0.00999954
##########                     HBond_Acceptors:                   4
##########                        HBond_Donors:                   0
##########                         Heavy_Atoms:                  25
##########                          Grid_Score:          -21.672720
##########                     Grid_vdw_energy:          -22.290245
##########                      Grid_es_energy:            0.617526
##########           Internal_energy_repulsive:           48.017334

@<TRIPOS>MOLECULE
ZINC000550782577
 51 53 1 0 0
SMALL
USER_CHARGES


@<TRIPOS>ATOM
      1 C1         -2.1999    4.1680   50.3280 C.3     1  ZINC000550782577    0.0700
      2 N2         -2.0657    2.7261   50.1062 N.am    1  ZINC000550782577   -0.5900
      3 C3         -2.7134    1.8578   50.9080 C.2     1  ZINC000550782577    0.5800
      4 O4         -2.6021    0.6616   50.7240 O.2     1  ZINC000550782577   -0.5400
      5 C5         -3.5599    2.3608   52.0121 C.ar    1  ZINC000550782577    0.0300
      6 C6         -2.9820    3.1025   53.0415 C.ar    1  ZINC000550782577   -0.0600
      7 C7         -3.7838    3.5676   54.0687 C.ar    1  ZINC000550782577   -0.1200
      8 C8         -5.1440    3.2744   54.0329 C.ar    1  ZINC000550782577    0.1100
      9 O9         -5.9667    3.7113   55.0200 O.3     1  ZINC000550782577   -0.3000
     10 C10        -7.1903    4.3305   54.6181 C.3     1  ZINC000550782577    0.1000
     11 C11        -7.0450    4.8703   53.1940 C.3     1  ZINC000550782577   -0.2000
     12 C12        -8.3210    3.3005   54.6603 C.3     1  ZINC000550782577   -0.1400
     13 C13        -7.5150    5.4836   55.5699 C.3     1  ZINC000550782577   -0.2000
     14 C14        -5.6511    2.5277   52.9722 C.ar    1  ZINC000550782577   -0.0100
     15 N15        -4.8634    2.1056   52.0095 N.ar    1  ZINC000550782577   -0.4100
     16 C16        -1.2274    2.2281   49.0128 C.3     1  ZINC000550782577    0.1400
     17 H17        -1.7911    1.5116   48.4154 H       1  ZINC000550782577    0.1100
     18 C18        -0.7815    3.3992   48.1295 C.3     1  ZINC000550782577   -0.1300
     19 C19        -0.1177    2.8322   46.8763 C.3     1  ZINC000550782577   -0.0800
     20 C20         0.9421    1.8279   47.2468 C.ar    1  ZINC000550782577   -0.0800
     21 C21         1.8882    1.5014   46.2843 C.ar    1  ZINC000550782577   -0.1200
     22 C22         2.8813    0.5842   46.5601 C.ar    1  ZINC000550782577   -0.1200
     23 C23         2.9352   -0.0157   47.8043 C.ar    1  ZINC000550782577   -0.1200
     24 C24         1.9975    0.3092   48.7628 C.ar    1  ZINC000550782577   -0.1200
     25 C25         0.9993    1.2348   48.4883 C.ar    1  ZINC000550782577   -0.0700
     26 C26         0.0176    1.5536   49.5855 C.3     1  ZINC000550782577   -0.0900
     27 H27        -1.4982    4.4837   51.1001 H       1  ZINC000550782577    0.0600
     28 H28        -1.9840    4.6998   49.4013 H       1  ZINC000550782577    0.0600
     29 H29        -3.2173    4.3934   50.6476 H       1  ZINC000550782577    0.1100
     30 H30        -1.9224    3.3111   53.0374 H       1  ZINC000550782577    0.1600
     31 H31        -3.3641    4.1445   54.8796 H       1  ZINC000550782577    0.1500
     32 H32        -7.2295    4.0673   52.4804 H       1  ZINC000550782577    0.0700
     33 H33        -7.7664    5.6716   53.0337 H       1  ZINC000550782577    0.0800
     34 H34        -6.0355    5.2567   53.0530 H       1  ZINC000550782577    0.0800
     35 H35        -8.4245    2.9160   55.6749 H       1  ZINC000550782577    0.0700
     36 H36        -9.2543    3.7729   54.3537 H       1  ZINC000550782577    0.0800
     37 H37        -8.0896    2.4791   53.9822 H       1  ZINC000550782577    0.0700
     38 H38        -6.7117    6.2195   55.5364 H       1  ZINC000550782577    0.0800
     39 H39        -8.4507    5.9529   55.2661 H       1  ZINC000550782577    0.0800
     40 H40        -7.6139    5.0997   56.5853 H       1  ZINC000550782577    0.0700
     41 H41        -6.7055    2.2967   52.9385 H       1  ZINC000550782577    0.1900
     42 H42        -1.6482    3.9969   47.8473 H       1  ZINC000550782577    0.0700
     43 H43        -0.0690    4.0190   48.6739 H       1  ZINC000550782577    0.0700
     44 H44        -0.8728    2.3465   46.2581 H       1  ZINC000550782577    0.0800
     45 H45         0.3391    3.6454   46.3122 H       1  ZINC000550782577    0.0800
     46 H46         1.8462    1.9690   45.3117 H       1  ZINC000550782577    0.1200
     47 H47         3.6139    0.3355   45.8066 H       1  ZINC000550782577    0.1200
     48 H48         3.7085   -0.7365   48.0252 H       1  ZINC000550782577    0.1200
     49 H49         2.0401   -0.1602   49.7345 H       1  ZINC000550782577    0.1200
     50 H50         0.4885    2.2220   50.3063 H       1  ZINC000550782577    0.0800
     51 H51        -0.2721    0.6307   50.0880 H       1  ZINC000550782577    0.0800
@<TRIPOS>BOND
     1     1     2    1
     2     1    27    1
     3     1    28    1
     4     1    29    1
     5     2     3   am
     6     2    16    1
     7     3     4    2
     8     3     5    1
     9     5    15   ar
    10     5     6   ar
    11     6     7   ar
    12     6    30    1
    13     7     8   ar
    14     7    31    1
    15     8     9    1
    16     8    14   ar
    17     9    10    1
    18    10    11    1
    19    10    12    1
    20    10    13    1
    21    11    32    1
    22    11    33    1
    23    11    34    1
    24    12    35    1
    25    12    36    1
    26    12    37    1
    27    13    38    1
    28    13    39    1
    29    13    40    1
    30    14    15   ar
    31    14    41    1
    32    16    17    1
    33    16    26    1
    34    16    18    1
    35    18    19    1
    36    18    42    1
    37    18    43    1
    38    19    20    1
    39    19    44    1
    40    19    45    1
    41    20    25   ar
    42    20    21   ar
    43    21    22   ar
    44    21    46    1
    45    22    23   ar
    46    22    47    1
    47    23    24   ar
    48    23    48    1
    49    24    25   ar
    50    24    49    1
    51    25    26    1
    52    26    50    1
    53    26    51    1
@<TRIPOS>SUBSTRUCTURE
     1 ZINC000550782577        1 TEMP              0 ****  ****    0 ROOT


##########                                Name:    ZINC000569288350
##########                DOCK_Rotatable_Bonds:                   3
##########                         Heavy_Atoms:                  19
##########                    Molecular_Weight:             393.559
##########                DOCK_Rotatable_Bonds:                   3
##########                       Formal_Charge:           0.0299999
##########                     HBond_Acceptors:                   5
##########                        HBond_Donors:                   1
##########                         Heavy_Atoms:                  19
##########                          Grid_Score:          -20.032581
##########                     Grid_vdw_energy:          -19.666321
##########                      Grid_es_energy:           -0.366260
##########           Internal_energy_repulsive:            5.026263

@<TRIPOS>MOLECULE
ZINC000569288350
 26 27 1 0 0
SMALL
USER_CHARGES


@<TRIPOS>ATOM
      1 O1        -10.4312   -0.8487   51.7119 O.2     1  ZINC000569288350   -0.4800
      2 C2         -9.6476   -0.7194   52.6326 C.2     1  ZINC000569288350    0.5700
      3 N3         -9.8544   -1.3767   53.7909 N.am    1  ZINC000569288350   -0.6600
      4 C4        -10.9738   -2.2034   53.9359 C.ar    1  ZINC000569288350    0.1800
      5 C5        -11.1256   -3.3177   53.1215 C.ar    1  ZINC000569288350   -0.1200
      6 C6        -12.2315   -4.1331   53.2659 C.ar    1  ZINC000569288350   -0.0600
      7 C7        -13.1883   -3.8413   54.2200 C.ar    1  ZINC000569288350   -0.1500
      8 C8        -13.0417   -2.7309   55.0350 C.ar    1  ZINC000569288350    0.1300
      9 F9        -13.9782   -2.4486   55.9668 F       1  ZINC000569288350   -0.1200
     10 C10       -11.9327   -1.9140   54.8989 C.ar    1  ZINC000569288350   -0.1000
     11 Cl11      -11.7474   -0.5224   55.9200 Cl      1  ZINC000569288350   -0.0400
     12 C12        -8.4666    0.1530   52.4796 C.ar    1  ZINC000569288350   -0.1400
     13 C13        -7.2443   -0.3852   52.0644 C.ar    1  ZINC000569288350    0.1400
     14 F14        -7.1400   -1.7062   51.8010 F       1  ZINC000569288350   -0.1200
     15 C15        -6.1429    0.4393   51.9238 C.ar    1  ZINC000569288350   -0.1300
     16 C16        -6.2490    1.7910   52.1930 C.ar    1  ZINC000569288350   -0.0600
     17 C17        -7.4558    2.3296   52.6049 C.ar    1  ZINC000569288350   -0.0900
     18 C18        -8.5653    1.5217   52.7434 C.ar    1  ZINC000569288350   -0.0500
     19 I19       -10.3897    2.3415   53.3670 I       1  ZINC000569288350    0.0000
     20 H20        -9.2272   -1.2766   54.5240 H       1  ZINC000569288350    0.4200
     21 H21       -10.3794   -3.5469   52.3750 H       1  ZINC000569288350    0.1600
     22 H22       -12.3489   -4.9997   52.6321 H       1  ZINC000569288350    0.1500
     23 H23       -14.0521   -4.4802   54.3299 H       1  ZINC000569288350    0.1500
     24 H24        -5.1980    0.0262   51.6031 H       1  ZINC000569288350    0.1500
     25 H25        -5.3856    2.4302   52.0819 H       1  ZINC000569288350    0.1500
     26 H26        -7.5303    3.3866   52.8136 H       1  ZINC000569288350    0.1500
@<TRIPOS>BOND
     1     1     2    2
     2     2     3   am
     3     2    12    1
     4     3     4    1
     5     3    20    1
     6     4    10   ar
     7     4     5   ar
     8     5     6   ar
     9     5    21    1
    10     6     7   ar
    11     6    22    1
    12     7     8   ar
    13     7    23    1
    14     8     9    1
    15     8    10   ar
    16    10    11    1
    17    12    18   ar
    18    12    13   ar
    19    13    14    1
    20    13    15   ar
    21    15    16   ar
    22    15    24    1
    23    16    17   ar
    24    16    25    1
    25    17    18   ar
    26    17    26    1
    27    18    19    1
@<TRIPOS>SUBSTRUCTURE
     1 ZINC000569288350        1 TEMP              0 ****  ****    0 ROOT

